
  EPA STORM WATER MANAGEMENT MODEL - VERSION 5.1 (Build 5.3.0.dev0)
  --------------------------------------------------------------

  WARNING 04: minimum elevation drop used for Conduit WS02004404WS02004405
  WARNING 03: negative offset ignored for Link YS02001904YS02001907
  
  *********************************************************
  NOTE: The summary statistics displayed in this report are
  based on results found at every computational time step,  
  not just on results from each reporting time step.
  *********************************************************
  
  ****************
  Analysis Options
  ****************
  Flow Units ............... LPS
  Process Models:
    Rainfall/Runoff ........ YES
    RDII ................... NO
    Snowmelt ............... NO
    Groundwater ............ NO
    Flow Routing ........... YES
    Ponding Allowed ........ NO
    Water Quality .......... NO
  Infiltration Method ...... HORTON
  Flow Routing Method ...... DYNWAVE
  Surcharge Method ......... EXTRAN
  Starting Date ............ 08/28/2015 08:00:00
  Ending Date .............. 08/28/2015 15:50:00
  Antecedent Dry Days ...... 8.0
  Report Time Step ......... 00:01:00
  Wet Time Step ............ 00:01:00
  Dry Time Step ............ 00:01:00
  Routing Time Step ........ 5.00 sec
  Variable Time Step ....... YES
  Maximum Trials ........... 8
  Number of Threads ........ 4
  Head Tolerance ........... 0.001500 m
  
  
  **************************        Volume         Depth
  Runoff Quantity Continuity     hectare-m            mm
  **************************     ---------       -------
  Total Precipitation ......         5.556        12.164
  Evaporation Loss .........         0.000         0.000
  Infiltration Loss ........         1.427         3.124
  Surface Runoff ...........         3.072         6.726
  Final Storage ............         1.058         2.316
  Continuity Error (%) .....        -0.016
  
  
  **************************        Volume        Volume
  Flow Routing Continuity        hectare-m      10^6 ltr
  **************************     ---------     ---------
  Dry Weather Inflow .......         0.616         6.165
  Wet Weather Inflow .......         3.071        30.709
  Groundwater Inflow .......         0.000         0.000
  RDII Inflow ..............         0.000         0.000
  External Inflow ..........         0.102         1.024
  External Outflow .........         2.002        20.024
  Flooding Loss ............         1.283        12.834
  Evaporation Loss .........         0.000         0.000
  Exfiltration Loss ........         0.000         0.000
  Initial Stored Volume ....         0.076         0.761
  Final Stored Volume ......         0.648         6.477
  Continuity Error (%) .....        -1.753
  
  
  *************************
  Highest Continuity Errors
  *************************
  Node HS02004842 (16.24%)
  Node YS02001884 (11.77%)
  Node JK-storage (-7.69%)
  Node YSB1171 (3.12%)
  Node HS02004817 (2.99%)
  
  
  ***************************
  Time-Step Critical Elements
  ***************************
  Link 3 (57.35%)
  Link WS02006252WS02006251 (35.62%)
  Link WS02006280WS02006229 (1.26%)
  
  
  ********************************
  Highest Flow Instability Indexes
  ********************************
  Link WS02006113WS02006111 (37)
  Link YS02163601YS02164001 (36)
  Link YS02163301YS02001633 (36)
  Link YS02001629YS02163301 (35)
  Link YS02001619YS02001622 (34)
  
  
  *************************
  Routing Time Step Summary
  *************************
  Minimum Time Step           :     0.50 sec
  Average Time Step           :     0.80 sec
  Maximum Time Step           :     5.00 sec
  Percent in Steady State     :    -0.00
  Average Iterations per Step :     4.31
  Percent Not Converging      :    18.24
  
  
  ***************************
  Subcatchment Runoff Summary
  ***************************
  
  ------------------------------------------------------------------------------------------------------------------------------
                            Total      Total      Total      Total     Imperv       Perv      Total       Total     Peak  Runoff
                           Precip      Runon       Evap      Infil     Runoff     Runoff     Runoff      Runoff   Runoff   Coeff
  Subcatchment                 mm         mm         mm         mm         mm         mm         mm    10^6 ltr      LPS
  ------------------------------------------------------------------------------------------------------------------------------
  sub0                      12.16       0.00       0.00       0.85      10.05       0.00      10.05        0.01     1.91   0.826
  sub1                      12.16       0.00       0.00       1.34       9.56       0.00       9.56        0.06    14.15   0.786
  sub2                      12.16       0.00       0.00       4.50       6.75       0.00       6.75        0.06    13.75   0.555
  sub3                      12.16       0.00       0.00       4.50       6.71       0.00       6.71        0.15    32.07   0.552
  sub4                      12.16       0.00       0.00       1.34       9.40       0.00       9.40        0.20    40.20   0.773
  sub5                      12.16       0.00       0.00       0.85       9.99       0.00       9.99        0.11    25.19   0.822
  sub7                      12.16       0.00       0.00       1.09       9.81       0.00       9.81        0.03     7.55   0.807
  sub8                      12.16       0.00       0.00       1.09       9.80       0.00       9.80        0.06    14.17   0.806
  sub9                      12.16       0.00       0.00       1.09       9.80       0.00       9.80        0.05    10.64   0.806
  sub10                     12.16       0.00       0.00       0.97       9.89       0.00       9.89        0.11    24.40   0.813
  sub11                     12.16       0.00       0.00       0.97       9.91       0.00       9.91        0.12    26.15   0.815
  sub12                     12.16       0.00       0.00       1.58       9.39       0.00       9.39        0.08    19.06   0.772
  sub14                     12.16       0.00       0.00       1.09       9.80       0.00       9.80        0.09    21.02   0.805
  sub15                     12.16       0.00       0.00       3.65       7.53       0.00       7.53        0.13    29.11   0.619
  sub16                     12.16       0.00       0.00       4.01       7.23       0.00       7.23        0.08    17.47   0.594
  sub17                     12.16       0.00       0.00       3.89       7.34       0.00       7.34        0.06    14.47   0.603
  sub22                     12.16       0.00       0.00       5.23       6.14       0.00       6.14        0.39    88.27   0.505
  sub23                     12.16       0.00       0.00       4.50       6.79       0.00       6.79        0.32    73.89   0.558
  sub60                     12.16       0.00       0.00       1.46       7.71       0.00       7.71        2.34   297.17   0.634
  sub61                     12.16       0.00       0.00       2.07       7.87       0.00       7.87        2.43   359.80   0.647
  sub62                     12.16       0.00       0.00       0.97       8.55       0.00       8.55        2.63   372.87   0.703
  sub63                     12.16       0.00       0.00       3.53       6.89       0.00       6.89        2.09   327.80   0.567
  sub64                     12.16       0.00       0.00       1.82       7.40       0.00       7.40        2.25   282.66   0.608
  sub65                     12.16       0.00       0.00       1.58       7.52       0.00       7.52        2.31   287.20   0.618
  sub66                     12.16       0.00       0.00       3.53       6.36       0.00       6.36        1.95   257.27   0.523
  sub67                     12.16       0.00       0.00       0.97       9.05       0.00       9.05        2.79   452.90   0.744
  sub68                     12.16       0.00       0.00       1.70       8.28       0.00       8.28        2.55   391.99   0.681
  sub69                     12.16       0.00       0.00       1.82       8.61       0.00       8.61        2.01   355.79   0.708
  sub70                     12.16       8.79       0.00       7.03      11.43       0.10      11.53        2.64   335.00   0.550
  sub71                     12.16       0.00       0.00       0.97       8.31       0.00       8.31        1.96   263.63   0.683
  sub72                     12.16       0.00       0.00       0.85       6.56       0.00       6.56        1.34   129.40   0.540
  sub73                     12.16      11.23       0.00       7.88      12.47       0.08      12.54        2.95   300.52   0.536
  sub74                     12.16       0.00       0.00       9.12       2.57       0.00       2.57        1.03   189.59   0.211
  
  
  ******************
  Node Depth Summary
  ******************
  
  ---------------------------------------------------------------------------------
                                 Average  Maximum  Maximum  Time of Max    Reported
                                   Depth    Depth      HGL   Occurrence   Max Depth
  Node                 Type       Meters   Meters   Meters  days hr:min      Meters
  ---------------------------------------------------------------------------------
  WS02001211           JUNCTION     0.65     0.74     5.58     0  03:09        0.74
  WS02001212           JUNCTION     0.38     0.47     5.53     0  03:08        0.47
  WS02001213           JUNCTION     0.62     0.73     5.50     0  03:08        0.73
  WS02003069           JUNCTION     0.45     0.59     5.18     0  03:07        0.59
  WS02003072           JUNCTION     0.51     0.65     5.02     0  03:08        0.65
  WS02003073           JUNCTION     0.31     0.40     4.46     0  03:08        0.40
  WS02003060           JUNCTION     0.40     0.52     5.45     0  03:07        0.52
  WS02003066           JUNCTION     0.24     0.33     5.88     0  03:06        0.33
  WS02003059           JUNCTION     0.68     0.80     5.48     0  03:07        0.80
  WS02003067           JUNCTION     0.59     0.74     6.06     0  03:06        0.74
  WS02004401           JUNCTION     0.70     0.97     6.97     0  03:04        0.97
  WS02004402           JUNCTION     0.73     0.99     6.95     0  03:04        0.98
  WS02004403           JUNCTION     0.75     0.99     6.92     0  03:04        0.99
  WS02004404           JUNCTION     0.83     1.05     6.90     0  03:04        1.05
  WS02004406           JUNCTION     0.83     1.03     6.86     0  03:04        1.03
  WS02004409           JUNCTION     0.52     0.75     6.52     0  03:05        0.75
  WS02004410           JUNCTION     0.54     0.76     6.48     0  03:05        0.76
  WS02004411           JUNCTION     0.55     0.76     6.44     0  03:05        0.76
  WS02004412           JUNCTION     0.57     0.76     6.40     0  03:05        0.76
  WS02004413           JUNCTION     0.72     0.91     6.38     0  03:06        0.91
  WS02004405           JUNCTION     0.82     1.04     6.89     0  03:04        1.04
  WS02006109           JUNCTION     0.79     1.10     7.72     0  03:03        1.08
  WS02006110           JUNCTION     0.77     1.02     7.61     0  03:03        1.00
  WS02006111           JUNCTION     0.23     0.35     7.05     0  03:03        0.34
  WS02006112           JUNCTION     0.88     1.20     7.08     0  02:35        1.18
  WS02006113           JUNCTION     0.36     0.51     7.40     0  03:02        0.51
  WS02006115           JUNCTION     0.60     0.88     7.02     0  03:03        0.88
  WS02006116           JUNCTION     0.68     0.95     6.99     0  03:04        0.95
  WS02006230           JUNCTION     0.76     1.16     7.90     0  03:01        1.16
  WS02006231           JUNCTION     0.51     0.81     7.94     0  03:01        0.81
  WS02006232           JUNCTION     0.65     0.93     7.97     0  03:02        0.92
  WS02006234           JUNCTION     0.56     0.84     8.00     0  03:02        0.84
  WS02006235           JUNCTION     0.59     0.86     8.03     0  03:01        0.85
  WS02006238           JUNCTION     0.62     0.89     8.03     0  03:02        0.88
  WS02006240           JUNCTION     0.51     0.77     8.07     0  03:02        0.77
  WS02006242           JUNCTION     0.56     0.82     8.09     0  03:02        0.82
  WS02006243           JUNCTION     0.43     0.70     8.12     0  03:02        0.70
  WS02006245           JUNCTION     0.41     0.65     8.14     0  03:02        0.65
  WS02006247           JUNCTION     0.42     0.65     8.15     0  03:02        0.65
  WS02006248           JUNCTION     0.37     0.57     8.16     0  03:02        0.57
  WS02006249           JUNCTION     0.40     0.58     8.18     0  03:02        0.58
  WS02006239           JUNCTION     0.57     0.84     8.05     0  03:02        0.84
  WS02006251           JUNCTION     0.38     0.55     8.22     0  03:02        0.55
  WS02006252           JUNCTION     0.31     0.35     8.59     0  01:59        0.35
  WS02006253           JUNCTION     0.41     0.58     8.22     0  03:01        0.58
  WS02006256           JUNCTION     1.08     2.35     9.28     0  00:00        1.21
  WS02004138           JUNCTION     0.15     0.17     7.42     0  00:00        0.17
  WS02004407           JUNCTION     0.24     0.33     6.64     0  03:04        0.33
  WS02006228           JUNCTION     0.79     1.17     7.82     0  03:02        1.16
  WS02006229           JUNCTION     0.77     1.17     7.87     0  03:02        1.17
  WS02006280           JUNCTION     0.07     0.19     8.46     0  03:02        0.19
  WS02006284           JUNCTION     0.37     0.55     8.95     0  03:02        0.55
  WS02006287           JUNCTION     0.11     0.28     9.24     0  03:01        0.28
  WSF200               JUNCTION     0.23     0.35     5.58     0  03:06        0.35
  HS02004901           JUNCTION     0.13     0.28    10.10     0  03:01        0.28
  HS02004881           JUNCTION     0.01     0.04     9.07     0  03:01        0.04
  HS02004876           JUNCTION     0.05     0.12     9.15     0  03:01        0.12
  HS02004870           JUNCTION     0.02     0.06     9.35     0  03:01        0.06
  HS02004862           JUNCTION     0.02     0.07     9.46     0  03:01        0.07
  HS02004856           JUNCTION     0.08     0.13     9.55     0  03:01        0.13
  HS02004852           JUNCTION     0.01     0.05     9.56     0  03:01        0.05
  HS02004848           JUNCTION     0.01     0.05     9.65     0  03:01        0.05
  HS02004842           JUNCTION     0.33     0.38     9.65     0  03:01        0.38
  HS02004837           JUNCTION     0.03     0.07     9.65     0  03:01        0.07
  HS02004830           JUNCTION     0.04     0.08     9.55     0  03:01        0.08
  HS02004824           JUNCTION     0.03     0.06     9.46     0  03:01        0.06
  HS02004817           JUNCTION     0.45     0.60     9.44     0  03:01        0.60
  HS02004807           JUNCTION     0.13     0.27     9.44     0  03:01        0.27
  HS02004802           JUNCTION     0.17     0.30     9.43     0  03:01        0.30
  HS02004799           JUNCTION     0.13     0.33     9.54     0  03:01        0.33
  HS02004792           JUNCTION     0.04     0.14     9.66     0  03:01        0.14
  HS02004788           JUNCTION     0.03     0.10    10.00     0  03:01        0.10
  HS02004785           JUNCTION     0.05     0.17    10.07     0  03:01        0.17
  HS02004777           JUNCTION     0.15     0.30    10.10     0  03:01        0.30
  HS02004770           JUNCTION     0.12     0.27    10.10     0  03:01        0.27
  HS02004480           JUNCTION     0.09     0.26     9.50     0  03:01        0.26
  HS02004479           JUNCTION     0.13     0.30     9.50     0  03:01        0.30
  HS02004478           JUNCTION     0.07     0.18     9.41     0  03:01        0.18
  YS02001745           JUNCTION     0.70     0.88     8.39     0  03:22        0.87
  YS02001748           JUNCTION     1.09     1.87     8.94     0  02:45        1.31
  YS02001751           JUNCTION     1.27     1.97     8.84     0  02:37        1.52
  YS02001754           JUNCTION     1.52     1.91     8.52     0  02:45        1.80
  YS02001762           JUNCTION     1.72     2.03     8.43     0  03:09        2.02
  YS02001765           JUNCTION     1.68     1.98     8.43     0  03:08        1.96
  YS02001767           JUNCTION     1.64     1.93     8.42     0  03:25        1.92
  YS02001770           JUNCTION     1.64     1.91     8.40     0  03:36        1.90
  YS02001774           JUNCTION     1.71     1.97     8.40     0  03:28        1.97
  YS02001779           JUNCTION     1.45     1.68     8.37     0  02:44        1.68
  YS02001882           JUNCTION     0.53     1.62     8.34     0  02:53        1.60
  YS02001884           JUNCTION     0.63     1.72     8.34     0  02:53        1.70
  YS02001759           JUNCTION     1.76     2.07     8.44     0  03:08        2.05
  YS02001887           JUNCTION     0.70     1.80     8.33     0  02:53        1.78
  YS02001890           JUNCTION     0.73     1.81     8.32     0  02:53        1.80
  YS02001898           JUNCTION     0.50     1.56     8.29     0  02:53        1.54
  YS02001901           JUNCTION     0.62     1.67     8.28     0  02:53        1.67
  YS02001904           JUNCTION     0.60     1.63     8.26     0  02:57        1.63
  YS02001907           JUNCTION     0.93     1.96     8.25     0  02:53        1.96
  YS02001910           JUNCTION     0.72     1.78     8.29     0  02:54        1.76
  YS02001915           JUNCTION     0.52     1.59     8.31     0  02:54        1.57
  YS02001918           JUNCTION     0.26     1.27     8.33     0  02:53        1.26
  YS02001619           JUNCTION     1.24     1.61     8.54     0  02:34        1.47
  YS02001629           JUNCTION     1.59     1.85     8.40     0  02:40        1.84
  YS02001641           JUNCTION     1.69     1.97     8.40     0  02:43        1.93
  YS02001644           JUNCTION     1.69     1.92     8.35     0  02:43        1.92
  YS02001652           JUNCTION     1.54     2.16     8.76     0  03:09        2.04
  YS02001655           JUNCTION     1.30     2.20     9.05     0  02:40        1.97
  YS02001920           JUNCTION     0.36     1.34     8.35     0  02:54        1.33
  YS02001923           JUNCTION     0.20     1.10     8.36     0  02:53        1.10
  YS02001926           JUNCTION     0.26     0.92     8.36     0  02:54        0.90
  YS02001929           JUNCTION     0.14     0.70     8.39     0  02:54        0.63
  YS02001658           JUNCTION     1.03     2.30     9.44     0  02:40        1.74
  YS02001661           JUNCTION     0.80     2.46     9.86     0  03:09        1.48
  YS02001664           JUNCTION     0.36     0.57     8.50     0  02:53        0.56
  YS02001622           JUNCTION     1.26     1.62     8.52     0  02:40        1.49
  YS02001633           JUNCTION     1.68     1.99     8.44     0  02:42        1.93
  YS02001649           JUNCTION     1.73     2.05     8.44     0  02:53        2.05
  YS02001757           JUNCTION     1.86     2.17     8.43     0  03:22        2.15
  YS02001895           JUNCTION     0.49     1.56     8.31     0  02:53        1.55
  YS02001625           JUNCTION     1.54     1.78     8.38     0  02:39        1.78
  YS02163301           JUNCTION     1.62     1.92     8.43     0  02:42        1.87
  YS02163601           JUNCTION     1.73     2.04     8.44     0  02:43        1.98
  YS02164001           JUNCTION     1.67     1.97     8.43     0  02:43        1.91
  YS02001647           JUNCTION     1.52     1.80     8.41     0  02:55        1.79
  YSB1154              JUNCTION     0.27     0.45     9.51     0  03:01        0.45
  YSB6556              JUNCTION     0.16     0.34     9.51     0  03:01        0.34
  YSB1174              JUNCTION     0.22     0.40     9.51     0  03:01        0.40
  YSB1171              JUNCTION     0.42     0.60     9.51     0  03:01        0.60
  YS02006553           JUNCTION     0.93     1.97     8.25     0  03:00        1.96
  YS02006561           JUNCTION     0.30     1.09     7.75     0  02:53        1.07
  YS02006556           JUNCTION     0.90     1.92     8.23     0  02:59        1.91
  YS02006558           JUNCTION     0.94     1.96     8.23     0  03:00        1.95
  YS02001783           JUNCTION     0.52     2.32     8.46     0  02:42        1.46
  YS02001784           JUNCTION     0.54     2.29     8.36     0  02:42        1.40
  YS02001786           JUNCTION     0.48     1.92     7.95     0  02:42        1.25
  YS02001788           JUNCTION     0.40     1.74     7.72     0  02:42        1.12
  YS02001790           JUNCTION     0.50     1.96     7.60     0  02:41        1.28
  YS02001791           JUNCTION     0.45     1.63     7.10     0  02:41        1.27
  YS02001793           JUNCTION     0.58     1.93     6.76     0  02:42        1.80
  WS02004139           JUNCTION     0.59     0.68     5.59     0  03:10        0.68
  WSC                  OUTFALL      0.31     0.40     1.07     0  03:09        0.40
  3                    OUTFALL      0.11     0.23     6.23     0  00:00        0.21
  4                    OUTFALL      0.01     0.08     7.08     0  03:02        0.08
  5                    OUTFALL      0.00     0.00     5.00     0  00:00        0.00
  JK-storage           STORAGE      2.36     5.80     6.60     0  02:41        5.80
  CC-storage           STORAGE      1.08     1.37     8.37     0  03:26        1.37
  XR-storage           STORAGE      6.65     7.72     5.72     0  02:57        7.72
  
  
  *******************
  Node Inflow Summary
  *******************
  
  -------------------------------------------------------------------------------------------------
                                  Maximum  Maximum                  Lateral       Total        Flow
                                  Lateral    Total  Time of Max      Inflow      Inflow     Balance
                                   Inflow   Inflow   Occurrence      Volume      Volume       Error
  Node                 Type           LPS      LPS  days hr:min    10^6 ltr    10^6 ltr     Percent
  -------------------------------------------------------------------------------------------------
  WS02001211           JUNCTION      7.35   294.23     0  03:16       0.207        6.76       0.435
  WS02001212           JUNCTION      0.00   295.96     0  03:16           0        6.73       0.254
  WS02001213           JUNCTION      0.00   297.47     0  03:15           0        6.72       0.301
  WS02003069           JUNCTION      0.32   964.37     0  03:07     0.00902        15.4       0.168
  WS02003072           JUNCTION      0.00   964.15     0  03:07           0        15.3       0.215
  WS02003073           JUNCTION      1.82   965.89     0  03:08      0.0514        15.4       0.239
  WS02003060           JUNCTION     16.53   964.34     0  03:06       0.466        15.4       0.159
  WS02003066           JUNCTION      0.00   657.40     0  03:06           0        8.26       0.049
  WS02003059           JUNCTION      0.00   299.76     0  03:16           0         6.7       0.494
  WS02003067           JUNCTION      0.00   657.27     0  03:06           0        8.27       0.105
  WS02004401           JUNCTION      0.00   659.59     0  03:03           0        8.48       0.222
  WS02004402           JUNCTION      0.00   658.69     0  03:04           0        8.46       0.213
  WS02004403           JUNCTION      0.00   658.39     0  03:04           0        8.44       0.196
  WS02004404           JUNCTION      0.16   658.42     0  03:04     0.00457        8.43       0.150
  WS02004406           JUNCTION      0.00   658.54     0  03:04           0         8.4       0.366
  WS02004409           JUNCTION      0.00   658.44     0  03:04           0        8.36       0.167
  WS02004410           JUNCTION      0.00   658.09     0  03:05           0        8.35       0.195
  WS02004411           JUNCTION      0.00   657.69     0  03:05           0        8.33       0.203
  WS02004412           JUNCTION      0.00   657.54     0  03:05           0        8.31       0.224
  WS02004413           JUNCTION      0.00   657.37     0  03:05           0         8.3       0.338
  WS02004405           JUNCTION      0.04   658.48     0  03:04     0.00107        8.42       0.227
  WS02006109           JUNCTION      1.23   651.71     0  03:02      0.0347        8.52       0.230
  WS02006110           JUNCTION      0.00   651.64     0  03:02           0         8.5       0.194
  WS02006111           JUNCTION      0.00   685.40     0  03:02           0        8.48       0.036
  WS02006112           JUNCTION     14.47   663.48     0  03:01      0.0629        8.54       0.294
  WS02006113           JUNCTION      0.00   653.49     0  03:02           0        8.48       0.084
  WS02006115           JUNCTION      0.00   663.29     0  03:01           0        8.51       0.198
  WS02006116           JUNCTION      0.00   660.58     0  03:02           0        8.49       0.195
  WS02006230           JUNCTION     10.28   347.85     0  03:21        0.29        6.63       0.172
  WS02006231           JUNCTION      0.00   335.61     0  03:21           0        6.35       0.110
  WS02006232           JUNCTION      0.00   335.52     0  03:21           0        6.36       0.205
  WS02006234           JUNCTION      0.00   334.51     0  03:22           0        6.37       0.068
  WS02006235           JUNCTION      0.00   333.93     0  03:22           0         6.4       0.134
  WS02006238           JUNCTION      0.00   257.57     0  02:50           0        4.22       0.122
  WS02006240           JUNCTION      0.00   255.67     0  02:50           0        4.21       0.136
  WS02006242           JUNCTION      0.00   256.09     0  02:50           0         4.2       0.148
  WS02006243           JUNCTION      0.00   254.04     0  02:50           0        4.19      -0.059
  WS02006245           JUNCTION      0.00   253.43     0  02:51           0         4.2       0.052
  WS02006247           JUNCTION      0.00   253.15     0  02:51           0         4.2       0.010
  WS02006248           JUNCTION      0.00   253.04     0  02:51           0         4.2      -0.027
  WS02006249           JUNCTION      0.00   280.35     0  03:01           0        4.31       0.056
  WS02006239           JUNCTION      0.00   257.92     0  02:50           0        4.21       0.156
  WS02006251           JUNCTION      0.08   280.63     0  03:01     0.00217        4.31       0.000
  WS02006252           JUNCTION      0.00   200.00     0  01:59           0        3.94       0.002
  WS02006253           JUNCTION      1.91    81.00     0  03:01     0.00814       0.367      -0.067
  WS02006256           JUNCTION      0.00   600.00     0  00:00           0         6.8       0.034
  WS02004138           JUNCTION      0.00   285.00     0  00:00           0        6.58       0.065
  WS02004407           JUNCTION      0.00   658.56     0  03:04           0        8.37       0.073
  WS02006228           JUNCTION      0.00   650.50     0  03:02           0         8.5       0.155
  WS02006229           JUNCTION      0.00   648.45     0  03:02           0        8.51       0.113
  WS02006280           JUNCTION      0.00   375.54     0  03:02           0        1.89       0.004
  WS02006284           JUNCTION      0.10   375.54     0  03:02      0.0027        1.89       0.064
  WS02006287           JUNCTION      0.00   375.26     0  03:01           0        1.89       0.037
  WSF200               JUNCTION      0.00   657.46     0  03:06           0        8.26       0.046
  HS02004901           JUNCTION     17.47    17.47     0  03:01      0.0757      0.0759       2.380
  HS02004881           JUNCTION      7.55    79.19     0  03:01      0.0331       0.357       0.088
  HS02004876           JUNCTION     14.15    72.10     0  03:01      0.0636       0.324       0.171
  HS02004870           JUNCTION     14.17    58.27     0  03:01      0.0626       0.261       0.043
  HS02004862           JUNCTION     13.95    44.46     0  03:01      0.0685       0.198       0.089
  HS02004856           JUNCTION     10.64    30.79     0  03:01      0.0471       0.131       1.115
  HS02004852           JUNCTION      0.00    20.44     0  03:01           0       0.084       0.069
  HS02004848           JUNCTION     32.07    32.07     0  03:01       0.151       0.151       0.033
  HS02004842           JUNCTION      0.00    11.42     0  03:01           0      0.0801      19.388
  HS02004837           JUNCTION     30.75    41.91     0  03:01       0.288       0.355       0.230
  HS02004830           JUNCTION      0.15    41.84     0  03:01     0.00423       0.346       0.358
  HS02004824           JUNCTION     40.25    81.79     0  03:01       0.197       0.542       0.100
  HS02004817           JUNCTION      0.60    82.18     0  03:01      0.0169       0.558       3.079
  HS02004807           JUNCTION     26.15   107.25     0  03:01       0.115       0.657       0.656
  HS02004802           JUNCTION      0.00   106.49     0  03:01           0       0.653       0.620
  HS02004799           JUNCTION     21.02   227.51     0  03:01      0.0932        1.06       0.236
  HS02004792           JUNCTION     88.55   207.33     0  03:01       0.396       0.966       0.043
  HS02004788           JUNCTION     30.78   119.37     0  03:01       0.177       0.571       0.068
  HS02004785           JUNCTION      0.15    89.79     0  03:01     0.00423       0.396       0.125
  HS02004777           JUNCTION      0.03    90.24     0  03:01    0.000846       0.397       1.326
  HS02004770           JUNCTION     73.89    90.93     0  03:01       0.324       0.398       0.787
  HS02004480           JUNCTION      0.00   269.27     0  03:01           0        1.25       0.099
  HS02004479           JUNCTION      0.00    42.82     0  03:02           0       0.204       0.361
  HS02004478           JUNCTION      0.00   375.17     0  03:01           0        1.89       0.018
  YS02001745           JUNCTION    297.18   297.18     0  03:01        2.34        2.34       0.490
  YS02001748           JUNCTION      0.04   437.74     0  02:44     0.00127        2.33       1.004
  YS02001751           JUNCTION      0.01   307.42     0  03:01     0.00031         2.3       1.031
  YS02001754           JUNCTION      0.26   307.90     0  03:01     0.00733        2.29       1.092
  YS02001762           JUNCTION      0.00   335.40     0  02:54           0        1.77       1.198
  YS02001765           JUNCTION      0.00   335.27     0  02:55           0        1.77       1.380
  YS02001767           JUNCTION      0.54   335.40     0  02:55      0.0151         1.8       2.029
  YS02001770           JUNCTION    373.02   373.02     0  03:01        2.63        2.68       1.206
  YS02001774           JUNCTION      0.00   291.36     0  03:28           0       0.913       2.815
  YS02001779           JUNCTION      0.01   291.73     0  03:29    0.000141       0.883       1.751
  YS02001882           JUNCTION      0.00    32.05     0  02:45           0      0.0162      15.870
  YS02001884           JUNCTION      0.00    64.08     0  02:43           0      0.0517      13.338
  YS02001759           JUNCTION    359.84   661.74     0  02:55        2.43        4.12       0.558
  YS02001887           JUNCTION    453.35   453.58     0  03:01         2.8        2.83       0.300
  YS02001890           JUNCTION      0.00   453.52     0  03:01           0        2.79       0.330
  YS02001898           JUNCTION      0.00   453.54     0  03:01           0        2.77       0.119
  YS02001901           JUNCTION      0.00   453.69     0  03:01           0        2.77       0.247
  YS02001904           JUNCTION      0.00   453.54     0  03:01           0        2.77       0.225
  YS02001907           JUNCTION      0.00   875.91     0  02:59           0        6.12       0.399
  YS02001910           JUNCTION      0.00   455.42     0  02:55           0        3.37       0.349
  YS02001915           JUNCTION    263.65   455.29     0  02:55        1.96        3.39       0.175
  YS02001918           JUNCTION      0.00   218.31     0  02:55           0        1.44       0.132
  YS02001619           JUNCTION    257.27   257.27     0  03:01        1.95        1.95       0.629
  YS02001629           JUNCTION      0.00   207.57     0  02:49           0        1.63       1.796
  YS02001641           JUNCTION      0.00   438.69     0  02:49           0        3.84       0.550
  YS02001644           JUNCTION    282.70  1001.27     0  03:25        2.25        8.16       0.322
  YS02001652           JUNCTION      0.00   371.25     0  03:01           0        2.04       1.142
  YS02001655           JUNCTION      0.15   371.15     0  03:01     0.00434        2.06       1.243
  YS02001920           JUNCTION      2.87   218.45     0  02:55      0.0809        1.43       0.206
  YS02001923           JUNCTION      0.04   227.18     0  02:55     0.00106        1.34       0.048
  YS02001926           JUNCTION      0.05   185.77     0  02:54     0.00147        1.34       0.250
  YS02001929           JUNCTION    129.40   129.40     0  03:01        1.34        1.34       0.040
  YS02001658           JUNCTION      0.00   557.99     0  02:40           0        2.08       1.114
  YS02001661           JUNCTION      0.00   695.52     0  02:53           0        2.82      -0.047
  YS02001664           JUNCTION    327.80   366.78     0  02:53        2.09        2.82       0.273
  YS02001622           JUNCTION      0.00   257.50     0  03:01           0        1.94       1.666
  YS02001633           JUNCTION    287.40   438.67     0  02:49        2.32         3.9       0.828
  YS02001649           JUNCTION      0.00   931.01     0  02:50           0        4.82       0.778
  YS02001757           JUNCTION      0.00  1776.83     0  02:51           0        8.99       1.038
  YS02001895           JUNCTION      0.00   453.62     0  03:01           0        2.78       0.176
  YS02001625           JUNCTION      0.00   257.34     0  03:01           0         1.9       2.055
  YS02163301           JUNCTION      0.00   207.69     0  02:49           0        1.61       1.507
  YS02163601           JUNCTION      0.11   438.55     0  02:49      0.0031        3.87       0.783
  YS02164001           JUNCTION      0.00   438.73     0  02:49           0        3.85       0.521
  YS02001647           JUNCTION      0.00   666.13     0  02:49           0        3.85       0.739
  YSB1154              JUNCTION     25.19    25.19     0  03:01       0.113       0.114       1.286
  YSB6556              JUNCTION      0.00    24.91     0  03:01           0       0.115       1.100
  YSB1174              JUNCTION     19.06    19.06     0  03:01      0.0821      0.0827       1.581
  YSB1171              JUNCTION      0.00    43.19     0  03:01           0       0.203       3.219
  YS02006553           JUNCTION      0.00   667.28     0  03:17           0         5.9       0.260
  YS02006561           JUNCTION      0.00   964.21     0  03:00           0        8.42       0.007
  YS02006556           JUNCTION      0.00   667.20     0  03:17           0         5.9       0.190
  YS02006558           JUNCTION    392.87   964.45     0  03:00        2.57        8.45       0.065
  YS02001783           JUNCTION      0.00   964.16     0  03:00           0        8.42       0.026
  YS02001784           JUNCTION      1.06   965.24     0  03:00      0.0299        8.45       0.044
  YS02001786           JUNCTION      0.06   965.25     0  03:00     0.00159        8.44       0.041
  YS02001788           JUNCTION      0.07   965.25     0  03:00       0.002        8.44       0.025
  YS02001790           JUNCTION      0.15   965.48     0  03:00     0.00437        8.45       0.030
  YS02001791           JUNCTION      0.00   965.60     0  03:00           0        8.44       0.014
  YS02001793           JUNCTION      0.00   965.55     0  03:00           0        8.44       0.003
  WS02004139           JUNCTION      0.32   290.33     0  00:00     0.00905        6.59       0.501
  WSC                  OUTFALL       0.00   965.79     0  03:09           0        15.3       0.000
  3                    OUTFALL       0.00   597.65     0  00:00           0        4.59       0.000
  4                    OUTFALL       0.00    61.44     0  03:02           0        0.11       0.000
  5                    OUTFALL       0.00     0.00     0  00:00           0           0       0.000 ltr
  JK-storage           STORAGE       0.00   965.60     0  03:00           0        8.59      -7.144
  CC-storage           STORAGE       0.00  1776.80     0  02:51           0        7.81       0.841
  XR-storage           STORAGE     690.11   690.11     0  03:01        9.61        10.2      -0.001
  
  
  **********************
  Node Surcharge Summary
  **********************
  
  Surcharging occurs when water rises above the top of the highest conduit.
  ---------------------------------------------------------------------
                                               Max. Height   Min. Depth
                                   Hours       Above Crown    Below Rim
  Node                 Type      Surcharged         Meters       Meters
  ---------------------------------------------------------------------
  WS02004404           JUNCTION        0.73          0.053        2.727
  WS02004406           JUNCTION        0.25          0.026        2.424
  WS02004405           JUNCTION        0.52          0.040        2.760
  WS02006109           JUNCTION        1.63          0.285        1.535
  WS02006110           JUNCTION        1.11          0.113        1.737
  WS02006112           JUNCTION        1.23          0.199        1.481
  WS02006230           JUNCTION        0.55          0.078        1.492
  WS02006231           JUNCTION        0.88          0.102        1.428
  WS02006232           JUNCTION        1.41          0.231        1.249
  WS02006234           JUNCTION        1.03          0.120        1.120
  WS02006235           JUNCTION        1.17          0.153        1.137
  WS02006238           JUNCTION        1.22          0.168        1.262
  WS02006240           JUNCTION        0.87          0.063        1.327
  WS02006242           JUNCTION        1.01          0.093        0.727
  WS02006239           JUNCTION        1.01          0.097        1.193
  WS02006256           JUNCTION        0.01          1.050        0.000
  WS02006228           JUNCTION        1.60          0.335        1.865
  YS02001748           JUNCTION        5.05          0.786        0.404
  YS02001751           JUNCTION        5.21          0.966        0.234
  YS02001754           JUNCTION        5.40          0.864        0.286
  YS02001762           JUNCTION        5.64          1.029        0.121
  YS02001765           JUNCTION        5.61          0.976        0.124
  YS02001767           JUNCTION        5.58          0.933        0.097
  YS02001770           JUNCTION        5.56          0.880        0.040
  YS02001774           JUNCTION        5.63          0.974        0.076
  YS02001779           JUNCTION        5.39          0.680        0.000
  YS02001882           JUNCTION        0.78          0.624        0.206
  YS02001884           JUNCTION        0.82          0.661        0.209
  YS02001759           JUNCTION        5.66          1.072        0.138
  YS02001887           JUNCTION        0.90          0.745        0.205
  YS02001890           JUNCTION        0.93          0.760        0.000
  YS02001898           JUNCTION        0.74          0.527        0.213
  YS02001901           JUNCTION        0.86          0.675        0.195
  YS02001904           JUNCTION        0.84          0.635        0.215
  YS02001907           JUNCTION        1.49          0.950        0.000
  YS02001910           JUNCTION        0.97          0.778        0.322
  YS02001915           JUNCTION        0.76          0.588        0.412
  YS02001918           JUNCTION        0.52          0.266        0.544
  YS02001619           JUNCTION        5.23          0.610        0.000
  YS02001629           JUNCTION        5.24          0.470        0.000
  YS02001641           JUNCTION        5.62          0.967        0.133
  YS02001644           JUNCTION        5.62          0.920        0.000
  YS02001652           JUNCTION        5.41          1.130        0.000
  YS02001655           JUNCTION        5.26          1.200        0.000
  YS02001920           JUNCTION        0.55          0.337        0.803
  YS02001658           JUNCTION        5.09          1.300        0.000
  YS02001661           JUNCTION        0.22          1.390        0.000
  YS02001622           JUNCTION        5.26          0.620        0.000
  YS02001633           JUNCTION        5.60          0.966        0.094
  YS02001649           JUNCTION        5.64          1.050        0.000
  YS02001757           JUNCTION        5.74          1.172        0.038
  YS02001895           JUNCTION        0.75          0.560        0.190
  YS02001625           JUNCTION        5.43          0.780        0.000
  YS02163301           JUNCTION        5.58          0.915        0.115
  YS02163601           JUNCTION        5.64          1.038        0.042
  YS02164001           JUNCTION        5.61          0.972        0.128
  YS02001647           JUNCTION        5.42          0.805        0.095
  YS02006553           JUNCTION        1.54          0.966        0.224
  YS02006561           JUNCTION        0.65          0.290        0.860
  YS02006556           JUNCTION        1.19          0.879        0.471
  YS02006558           JUNCTION        1.15          0.858        0.542
  YS02001783           JUNCTION        1.20          1.522        0.078
  YS02001784           JUNCTION        1.23          1.490        0.000
  YS02001786           JUNCTION        1.20          1.119        0.311
  YS02001788           JUNCTION        1.19          0.939        0.541
  YS02001790           JUNCTION        1.66          1.157        0.000
  YS02001791           JUNCTION        1.69          0.829        1.091
  YS02001793           JUNCTION        1.77          0.926        1.674
  
  
  *********************
  Node Flooding Summary
  *********************
  
  Flooding refers to all water that overflows a node, whether it ponds or not.
  --------------------------------------------------------------------------
                                                             Total   Maximum
                                 Maximum   Time of Max       Flood    Ponded
                        Hours       Rate    Occurrence      Volume     Depth
  Node                 Flooded       LPS   days hr:min    10^6 ltr    Meters
  --------------------------------------------------------------------------
  WS02006256              0.01    406.11      0  00:00       0.001     0.000
  YS02001779              2.57    291.64      0  03:29       0.863     0.000
  YS02001890              0.01      2.03      0  02:53       0.000     0.000
  YS02001907              0.38    295.79      0  02:59       0.207     0.000
  YS02001619              0.01     17.65      0  02:40       0.000     0.000
  YS02001629              0.01     38.63      0  02:40       0.000     0.000
  YS02001644              4.87   1001.15      0  03:25       6.364     0.000
  YS02001652              0.01      8.33      0  03:09       0.000     0.000
  YS02001655              0.01     12.32      0  03:04       0.000     0.000
  YS02001658              0.01    141.61      0  02:40       0.000     0.000
  YS02001661              0.01    141.71      0  03:09       0.000     0.000
  YS02001622              0.01      7.68      0  02:40       0.000     0.000
  YS02001649              0.09     44.73      0  02:57       0.005     0.000
  YS02001625              0.83    168.18      0  03:01       0.236     0.000
  YS02001784              0.01     43.13      0  02:42       0.000     0.000
  YS02001790              0.01    120.23      0  02:41       0.000     0.000
  JK-storage              1.34    853.98      0  02:53       2.456     0.000
  XR-storage              4.07    457.33      0  04:00       2.703     0.000
  
  
  **********************
  Storage Volume Summary
  **********************
  
  --------------------------------------------------------------------------------------------------
                         Average     Avg  Evap Exfil       Maximum     Max    Time of Max    Maximum
                          Volume    Pcnt  Pcnt  Pcnt        Volume    Pcnt     Occurrence    Outflow
  Storage Unit           1000 m3    Full  Loss  Loss       1000 m3    Full    days hr:min        LPS
  --------------------------------------------------------------------------------------------------
  JK-storage               0.119      41     0     0         0.291     100       0  02:41     600.00
  CC-storage               3.009      19     0     0         3.831      24       0  03:26     200.00
  XR-storage               0.797      86     0     0         0.926     100       0  02:57     285.00
  
  
  ***********************
  Outfall Loading Summary
  ***********************
  
  -----------------------------------------------------------
                         Flow       Avg       Max       Total
                         Freq      Flow      Flow      Volume
  Outfall Node           Pcnt       LPS       LPS    10^6 ltr
  -----------------------------------------------------------
  WSC                   99.99    606.59    965.79      15.321
  3                     92.41    231.52    597.65       4.593
  4                     17.38     28.07     61.44       0.110
  5                      0.00      0.00      0.00       0.000
  -----------------------------------------------------------
  System                52.45    866.18   1377.53      20.024
  
  
  ********************
  Link Flow Summary
  ********************
  
  -----------------------------------------------------------------------------
                                 Maximum  Time of Max   Maximum    Max/    Max/
                                  |Flow|   Occurrence   |Veloc|    Full    Full
  Link                 Type          LPS  days hr:min     m/sec    Flow   Depth
  -----------------------------------------------------------------------------
  WS02003066WSF200     CONDUIT    657.46     0  03:06      2.87    0.11    0.26
  WS02006287WS02006284 CONDUIT    375.44     0  03:02      1.98    0.17    0.29
  WS02006284WS02006280 CONDUIT    375.54     0  03:02      2.22    0.16    0.27
  WS02006280WS02006229 CONDUIT    375.58     0  03:02      3.58    0.08    0.19
  WS02006229WS02006228 CONDUIT    650.50     0  03:02      1.29    2.15    1.00
  WS02006256WS02006235 CONDUIT    177.52     0  00:01      2.73    1.88    1.00
  WS02006253WS02006251 CONDUIT     80.55     0  03:01      0.46    0.24    0.80
  WS02006252WS02006251 CONDUIT    200.61     0  01:59      1.97    0.74    0.76
  WS02006251WS02006249 CONDUIT    280.35     0  03:01      0.97    0.81    0.81
  WS02006249WS02006248 CONDUIT    253.04     0  02:51      1.05    1.39    0.81
  WS02006248WS02006247 CONDUIT    253.15     0  02:51      1.02    0.55    0.87
  WS02006247WS02006245 CONDUIT    253.43     0  02:51      0.98    2.01    0.92
  WS02006245WS02006243 CONDUIT    254.04     0  02:50      1.03    0.75    0.96
  WS02006243WS02006242 CONDUIT    256.09     0  02:50      0.84    0.55    1.00
  WS02006242WS02006240 CONDUIT    255.67     0  02:50      0.77    1.02    1.00
  WS02006240WS02006239 CONDUIT    257.92     0  02:50      0.84    0.81    1.00
  WS02006239WS02006238 CONDUIT    257.57     0  02:50      0.77    0.82    1.00
  WS02006238WS02006235 CONDUIT    257.34     0  02:50      1.32    0.57    1.00
  WS02006235WS02006234 CONDUIT    334.51     0  03:22      0.95    3.53    1.00
  WS02006234WS02006232 CONDUIT    335.52     0  03:21      1.17    0.68    1.00
  WS02006232WS02006231 CONDUIT    335.61     0  03:21      0.95    0.70    1.00
  WS02006231WS02006230 CONDUIT    337.57     0  03:21      1.30    5.12    1.00
  WS02006230WS02006229 CONDUIT    350.41     0  03:21      0.91    7.80    1.00
  WS02006228WS02006109 CONDUIT    650.48     0  03:02      1.29    2.84    1.00
  WS02006116WS02004401 CONDUIT    659.59     0  03:03      0.85    0.91    0.96
  WS02006115WS02006116 CONDUIT    660.58     0  03:02      0.90    0.85    0.89
  WS02006113WS02006111 CONDUIT    685.40     0  03:02      2.60    0.82    0.53
  WS02006112WS02006115 CONDUIT    663.29     0  03:01      0.87    0.39    0.93
  WS02006111WS02006112 CONDUIT    650.73     0  03:01      1.72    0.31    0.71
  WS02006110WS02006113 CONDUIT    653.49     0  03:02      1.49    0.59    0.82
  WS02006109WS02006110 CONDUIT    651.64     0  03:02      1.30    1.25    1.00
  WS02004411WS02004412 CONDUIT    657.54     0  03:05      1.03    0.93    0.76
  WS02004401WS02004402 CONDUIT    658.69     0  03:04      0.84    0.79    0.98
  WS02004413WS02003067 CONDUIT    657.27     0  03:06      1.24    0.28    0.64
  WS02004412WS02004413 CONDUIT    657.37     0  03:05      0.94    0.44    0.84
  WS02004410WS02004411 CONDUIT    657.69     0  03:05      1.03    0.90    0.76
  WS02004409WS02004410 CONDUIT    658.09     0  03:05      1.04    0.85    0.75
  WS02004407WS02004409 CONDUIT    658.44     0  03:04      1.53    0.23    0.54
  WS02004406WS02004407 CONDUIT    658.56     0  03:04      1.19    0.29    0.66
  WS02004405WS02004406 CONDUIT    658.54     0  03:04      0.84    1.30    1.00
  WS02004404WS02004405 CONDUIT    658.44     0  03:04      0.84    6.45    1.00
  WS02004403WS02004404 CONDUIT    658.26     0  03:04      0.84    0.48    1.00
  WS02004402WS02004403 CONDUIT    658.39     0  03:04      0.84    0.95    0.99
  WS02004139WS02001211 CONDUIT    286.89     0  03:16      0.80    0.36    0.55
  WS02004138WS02004139 CONDUIT    290.01     0  00:00      3.34    0.06    0.40
  WS02003067WS02003066 CONDUIT    657.40     0  03:06      1.35    0.21    0.45
  WS02001213WS02003059 CONDUIT    299.76     0  03:16      0.80    0.49    0.76
  WS02001212WS02001213 CONDUIT    297.47     0  03:15      1.19    0.46    0.44
  WS02001211WS02001212 CONDUIT    295.96     0  03:16      0.67    0.23    0.60
  WS02003072WS02003073 CONDUIT    964.07     0  03:08      1.74    2.08    0.49
  WS02003069WS02003072 CONDUIT    964.15     0  03:07      1.64    0.46    0.52
  WS02003060WS02003069 CONDUIT    964.05     0  03:07      1.88    0.38    0.46
  WS02003059WS02003060 CONDUIT    302.78     0  03:16      0.82    0.20    0.66
  HS02004901HS02004770 CONDUIT     17.70     0  03:01      0.07    0.07    0.39
  HS02004876HS02004881 CONDUIT     71.90     0  03:01      0.92    0.76    0.11
  HS02004870HS02004876 CONDUIT     58.03     0  03:01      0.63    0.04    0.13
  HS02004842HS02004848 CONDUIT     11.42     0  03:01      0.05    0.01    0.30
  HS02004837HS02004842 CONDUIT     11.94     0  03:02      0.41    0.01    0.32
  HS02004830HS02004837 CONDUIT     41.69     0  03:01      0.56    0.04    0.11
  HS02004824HS02004830 CONDUIT     41.67     0  03:01      0.58    0.05    0.10
  HS02004817HS02004824 CONDUIT     81.58     0  03:01      0.25    0.04    0.47
  HS02004770HS02004777 CONDUIT     90.21     0  03:01      0.32    0.16    0.41
  HS02004799HS02004480 CONDUIT    226.97     0  03:01      0.78    0.29    0.42
  HS02004792HS02004799 CONDUIT    206.60     0  03:01      0.88    0.13    0.33
  HS02004788HS02004792 CONDUIT    118.94     0  03:01      1.01    0.08    0.17
  HS02004785HS02004788 CONDUIT     89.52     0  03:02      0.66    0.67    0.19
  HS02004777HS02004785 CONDUIT     89.64     0  03:01      0.38    0.11    0.33
  HS02004480HS02004478 CONDUIT    269.12     0  03:01      1.20    1.13    0.32
  HS02004479HS02004480 CONDUIT     44.17     0  03:02      0.23    0.04    0.40
  HS02004862HS02004870 CONDUIT     44.23     0  03:01      0.64    0.05    0.10
  HS02004848HS02004852 CONDUIT     20.44     0  03:01      0.44    0.02    0.07
  HS02004856HS02004862 CONDUIT     30.57     0  03:01      0.47    0.03    0.09
  HS02004852HS02004856 CONDUIT     20.26     0  03:01      0.24    0.02    0.12
  HS02004802HS02004478 CONDUIT    106.59     0  03:02      0.45    0.09    0.35
  HS02004478WS02006287 CONDUIT    375.26     0  03:01      1.68    0.11    0.25
  HS02004817HS02004807 CONDUIT     82.18     0  03:01      0.19    0.05    0.62
  HS02004807HS02004802 CONDUIT    106.49     0  03:01      0.38    0.20    0.40
  YS02001759YS02001757 CONDUIT    661.49     0  02:55      0.84    0.47    1.00
  YS02001762YS02001759 CONDUIT    335.55     0  02:54      0.43    0.39    1.00
  YS02001765YS02001762 CONDUIT    335.40     0  02:54      0.43    0.31    1.00
  YS02001770YS02001767 CONDUIT    334.87     0  02:55      0.43    1.33    1.00
  YS02001774YS02001770 CONDUIT    291.36     0  03:28      0.37    0.19    1.00
  YS02001779YS02001774 CONDUIT    291.73     0  03:29      0.37    0.15    1.00
  YS02001649YS02001757 CONDUIT    930.94     0  02:50      1.19    0.56    1.00
  YS02001767YS02001765 CONDUIT    335.27     0  02:55      0.43    0.42    1.00
  YS02006561YS02001783 CONDUIT    964.16     0  03:00      2.11    0.50    1.00
  YS02001783YS02001784 CONDUIT    964.18     0  03:00      1.92    1.33    1.00
  YS02001784YS02001785 CONDUIT    965.20     0  03:00      1.92    2.25    1.00
  YS02001788YS02001790 CONDUIT    965.33     0  03:00      2.32    0.71    1.00
  YS02001790YS02001791 CONDUIT    965.60     0  03:00      2.86    1.05    1.00
  YS02001791YS02001793 CONDUIT    965.55     0  03:00      5.73    0.41    1.00
  YS02001910YS02001907 CONDUIT    455.27     0  02:55      0.58    0.26    1.00
  YS02001786YS02001788 CONDUIT    965.18     0  03:00      2.23    1.86    1.00
  YS02001915YS02001910 CONDUIT    455.42     0  02:55      0.58    0.23    1.00
  YS02001918YS02001915 CONDUIT    218.89     0  02:55      0.44    0.12    1.00
  YS02001923YS02001920 CONDUIT    215.58     0  02:55      0.68    0.10    1.00
  YS02001926YS02001923 CONDUIT    227.14     0  02:55      0.79    0.32    0.90
  YS02001929YS02001926 CONDUIT    185.72     0  02:54      0.84    0.09    0.79
  YS02001920YS02001918 CONDUIT    218.31     0  02:55      0.67    0.21    1.00
  YS02001629YS02163301 CONDUIT    207.69     0  02:49      0.26    0.26    1.00
  YS02001619YS02001622 CONDUIT    257.50     0  03:01      0.61    0.38    1.00
  YS02001622YS02001625 CONDUIT    257.34     0  03:01      0.33    0.14    1.00
  YS02001625YS02001629 CONDUIT    207.57     0  02:49      0.26    0.10    1.00
  YS02163301YS02001633 CONDUIT    207.62     0  02:49      0.26    0.20    1.00
  YS02163601YS02164001 CONDUIT    438.73     0  02:49      0.56    0.39    1.00
  YS02164001YS02001641 CONDUIT    438.69     0  02:49      0.56    0.60    1.00
  YS02001641YS02001644 CONDUIT    438.57     0  02:49      0.56    1.42    1.00
  YS02001647YS02001649 CONDUIT    665.93     0  02:49      0.85    0.35    1.00
  YS02006553YS02006556 CONDUIT    667.20     0  03:17      0.85    0.57    1.00
  YS02006556YS02006558 CONDUIT    667.37     0  03:17      0.85    0.53    1.00
  YSB6556YSB1171       CONDUIT     24.81     0  03:03      0.09    0.03    0.67
  YS02001907YS02006553 CONDUIT    667.28     0  03:17      0.74    0.78    1.00
  YS02006558YS02006561 CONDUIT    964.21     0  03:00      3.41    2.13    1.00
  YS02001633YS02163601 CONDUIT    438.44     0  02:49      0.56    0.46    1.00
  YS02001644YS02001647 CONDUIT    666.13     0  02:49      0.85    0.39    1.00
  YS02001745YS02001748 CONDUIT    437.69     0  02:44      1.48    0.17    0.94
  YS02001748YS02001751 CONDUIT    307.41     0  03:01      1.05    0.16    1.00
  YS02001751YS02001754 CONDUIT    307.64     0  03:01      0.88    0.15    1.00
  YS02001754YS02001757 CONDUIT    307.74     0  03:01      0.39    0.12    1.00
  YS02001882YS02001884 CONDUIT     32.05     0  02:45      0.09    0.04    1.00
  YS02001884YS02001887 CONDUIT     64.08     0  02:43      0.08    0.09    1.00
  YS02001890YS02001895 CONDUIT    453.62     0  03:01      0.58    0.21    1.00
  YS02001895YS02001898 CONDUIT    453.54     0  03:01      0.58    0.79    1.00
  YS02001898YS02001901 CONDUIT    453.69     0  03:01      0.58    0.29    1.00
  YS02001901YS02001904 CONDUIT    453.54     0  03:01      0.58    0.70    1.00
  YS02001904YS02001907 CONDUIT    453.69     0  03:01      0.58    0.16    1.00
  YS02001887YS02001890 CONDUIT    453.52     0  03:01      0.58    0.78    1.00
  YS02001652YS02001649 CONDUIT    370.88     0  03:01      0.50    0.18    1.00
  YS02001655YS02001652 CONDUIT    371.25     0  03:01      0.93    0.18    1.00
  YS02001658YS02001655 CONDUIT    371.00     0  03:01      1.21    0.16    1.00
  YS02001661YS02001658 CONDUIT    557.99     0  02:40      1.56    0.22    1.00
  YS02001664YS02001661 CONDUIT    695.52     0  02:53      1.58    0.22    0.72
  YSB1154YSB6556       CONDUIT     24.91     0  03:01      0.19    0.04    0.56
  YSB1174YSB1171       CONDUIT     18.78     0  03:01      0.07    0.03    0.68
  YSB1171HS02004479    CONDUIT     42.82     0  03:02      0.54    0.03    0.53
  HS02004881HS02006253 CONDUIT     79.15     0  03:01      1.62    0.02    0.20
  YS02001793JiankangQianchi CONDUIT    965.60     0  03:00     15.20    0.08    1.00
  YS02001757CaochengTiaoxuchi CONDUIT   1776.80     0  02:51      2.39    0.78    1.00
  WSF200WS02003060     CONDUIT    657.61     0  03:06      1.94    0.15    0.36
  1                    CONDUIT    965.79     0  03:09      3.30    0.34    0.40
  2                    CONDUIT     61.44     0  03:02      4.22    0.15    0.26
  3                    CONDUIT    597.65     0  00:00     10.30    0.95    0.86
  4                    CONDUIT      0.00     0  00:00      0.00    0.00    0.00
  CC-Pump-1            PUMP         0.00     0  00:00              0.00
  CC-Pump-2            PUMP       200.00     0  01:59              1.00
  JK-Pump-1            PUMP       300.00     0  00:00              1.00
  JK-Pump-2            PUMP       300.00     0  00:00              1.00
  XR-Pump-1            PUMP        95.00     0  00:00              1.00
  XR-Pump-2            PUMP         0.00     0  00:00              0.00
  XR-Pump-3            PUMP        95.00     0  00:00              1.00
  XR-Pump-4            PUMP        95.00     0  00:00              1.00
  
  
  ***************************
  Flow Classification Summary
  ***************************
  
  -------------------------------------------------------------------------------------
                      Adjusted    ---------- Fraction of Time in Flow Class ---------- 
                       /Actual         Up    Down  Sub   Sup   Up    Down  Norm  Inlet 
  Conduit               Length    Dry  Dry   Dry   Crit  Crit  Crit  Crit  Ltd   Ctrl  
  -------------------------------------------------------------------------------------
  WS02003066WSF200        1.00   0.07  0.00  0.00  0.00  0.93  0.00  0.00  0.57  0.00
  WS02006287WS02006284    1.00   0.03  0.01  0.00  0.59  0.37  0.00  0.00  0.65  0.00
  WS02006284WS02006280    1.00   0.04  0.00  0.00  0.00  0.00  0.00  0.96  0.00  0.00
  WS02006280WS02006229    1.00   0.04  0.00  0.00  0.00  0.00  0.00  0.96  0.00  0.00
  WS02006229WS02006228    1.00   0.00  0.00  0.00  0.98  0.00  0.00  0.02  0.00  0.00
  WS02006256WS02006235    1.00   0.00  0.00  0.00  1.00  0.00  0.00  0.00  0.00  0.00
  WS02006253WS02006251    1.00   0.02  0.01  0.00  0.97  0.00  0.00  0.00  0.00  0.00
  WS02006252WS02006251    1.00   0.07  0.00  0.00  0.00  0.00  0.93  0.00  0.00  0.00
  WS02006251WS02006249    1.00   0.00  0.00  0.00  1.00  0.00  0.00  0.00  0.25  0.00
  WS02006249WS02006248    1.00   0.00  0.02  0.00  0.91  0.00  0.07  0.00  0.00  0.00
  WS02006248WS02006247    1.00   0.02  0.00  0.00  0.97  0.00  0.00  0.01  0.13  0.00
  WS02006247WS02006245    1.00   0.02  0.00  0.00  0.97  0.00  0.00  0.02  0.00  0.00
  WS02006245WS02006243    1.00   0.01  0.00  0.00  0.95  0.00  0.00  0.03  0.02  0.00
  WS02006243WS02006242    1.00   0.01  0.00  0.00  0.99  0.00  0.00  0.00  0.20  0.00
  WS02006242WS02006240    1.00   0.00  0.00  0.00  1.00  0.00  0.00  0.00  0.00  0.00
  WS02006240WS02006239    1.00   0.00  0.00  0.00  0.97  0.00  0.00  0.03  0.02  0.00
  WS02006239WS02006238    1.00   0.00  0.00  0.00  1.00  0.00  0.00  0.00  0.01  0.00
  WS02006238WS02006235    1.00   0.00  0.00  0.00  1.00  0.00  0.00  0.00  0.00  0.00
  WS02006235WS02006234    1.00   0.00  0.00  0.00  0.96  0.00  0.04  0.00  0.00  0.00
  WS02006234WS02006232    1.00   0.00  0.00  0.00  1.00  0.00  0.00  0.00  0.03  0.00
  WS02006232WS02006231    1.00   0.00  0.00  0.00  0.99  0.00  0.01  0.00  0.00  0.00
  WS02006231WS02006230    1.00   0.00  0.00  0.00  0.52  0.00  0.47  0.00  0.00  0.00
  WS02006230WS02006229    1.00   0.00  0.00  0.00  0.98  0.00  0.00  0.02  0.01  0.00
  WS02006228WS02006109    1.00   0.00  0.00  0.00  1.00  0.00  0.00  0.00  0.00  0.00
  WS02006116WS02004401    1.00   0.02  0.00  0.00  0.98  0.00  0.00  0.00  0.00  0.00
  WS02006115WS02006116    1.00   0.02  0.00  0.00  0.97  0.00  0.00  0.01  0.01  0.00
  WS02006113WS02006111    1.00   0.02  0.00  0.00  0.00  0.98  0.00  0.00  0.10  0.00
  WS02006112WS02006115    1.00   0.02  0.00  0.00  0.98  0.00  0.00  0.00  0.00  0.00
  WS02006111WS02006112    1.00   0.02  0.00  0.00  0.98  0.00  0.00  0.00  0.92  0.00
  WS02006110WS02006113    1.00   0.01  0.00  0.00  0.98  0.00  0.00  0.00  0.00  0.00
  WS02006109WS02006110    1.00   0.00  0.01  0.00  0.98  0.00  0.00  0.00  0.00  0.00
  WS02004411WS02004412    1.00   0.04  0.00  0.00  0.96  0.00  0.00  0.00  0.00  0.00
  WS02004401WS02004402    1.00   0.02  0.00  0.00  0.98  0.00  0.00  0.00  0.00  0.00
  WS02004413WS02003067    1.00   0.05  0.01  0.00  0.00  0.00  0.94  0.00  0.00  0.00
  WS02004412WS02004413    1.00   0.05  0.00  0.00  0.95  0.00  0.00  0.00  0.01  0.00
  WS02004410WS02004411    1.00   0.04  0.00  0.00  0.96  0.00  0.00  0.00  0.00  0.00
  WS02004409WS02004410    1.00   0.04  0.00  0.00  0.96  0.00  0.00  0.00  0.00  0.00
  WS02004407WS02004409    1.00   0.04  0.00  0.00  0.95  0.00  0.00  0.00  0.80  0.00
  WS02004406WS02004407    1.00   0.00  0.04  0.00  0.96  0.00  0.00  0.00  0.00  0.00
  WS02004405WS02004406    1.00   0.00  0.00  0.00  1.00  0.00  0.00  0.00  0.02  0.00
  WS02004404WS02004405    1.00   0.00  0.00  0.00  1.00  0.00  0.00  0.00  0.00  0.00
  WS02004403WS02004404    1.00   0.00  0.02  0.00  0.98  0.00  0.00  0.00  0.02  0.00
  WS02004402WS02004403    1.00   0.02  0.00  0.00  0.98  0.00  0.00  0.00  0.00  0.00
  WS02004139WS02001211    1.00   0.00  0.00  0.00  0.99  0.00  0.01  0.00  0.00  0.00
  WS02004138WS02004139    1.00   0.00  0.00  0.00  0.99  0.01  0.00  0.00  1.00  0.00
  WS02003067WS02003066    1.00   0.06  0.01  0.00  0.94  0.00  0.00  0.00  0.00  0.00
  WS02001213WS02003059    1.00   0.00  0.00  0.00  0.99  0.00  0.00  0.00  0.00  0.00
  WS02001212WS02001213    1.00   0.00  0.00  0.00  0.91  0.00  0.09  0.00  0.00  0.00
  WS02001211WS02001212    1.00   0.00  0.00  0.00  1.00  0.00  0.00  0.00  0.00  0.00
  WS02003072WS02003073    1.00   0.00  0.00  0.00  0.00  0.00  0.00  1.00  0.00  0.00
  WS02003069WS02003072    1.00   0.00  0.00  0.00  0.99  0.01  0.00  0.00  0.22  0.00
  WS02003060WS02003069    1.00   0.00  0.00  0.00  0.99  0.01  0.00  0.00  0.03  0.00
  WS02003059WS02003060    1.00   0.00  0.00  0.00  0.99  0.01  0.00  0.00  0.01  0.00
  HS02004901HS02004770    1.00   0.03  0.00  0.00  0.97  0.00  0.00  0.00  0.00  0.00
  HS02004876HS02004881    1.00   0.02  0.00  0.00  0.91  0.08  0.00  0.00  0.00  0.00
  HS02004870HS02004876    1.00   0.01  0.00  0.00  0.99  0.00  0.00  0.00  0.95  0.00
  HS02004842HS02004848    1.00   0.00  0.03  0.00  0.97  0.00  0.00  0.00  0.58  0.00
  HS02004837HS02004842    1.00   0.00  0.00  0.00  0.99  0.01  0.00  0.00  0.11  0.00
  HS02004830HS02004837    1.00   0.00  0.00  0.00  1.00  0.00  0.00  0.00  0.99  0.00
  HS02004824HS02004830    1.00   0.00  0.00  0.00  1.00  0.00  0.00  0.00  0.00  0.00
  HS02004817HS02004824    1.00   0.00  0.00  0.00  1.00  0.00  0.00  0.00  1.00  0.00
  HS02004770HS02004777    1.00   0.00  0.03  0.00  0.97  0.00  0.00  0.00  0.03  0.00
  HS02004799HS02004480    1.00   0.00  0.02  0.00  0.96  0.00  0.02  0.00  0.00  0.00
  HS02004792HS02004799    1.00   0.00  0.00  0.00  0.99  0.01  0.00  0.00  0.98  0.00
  HS02004788HS02004792    1.00   0.00  0.00  0.00  0.99  0.01  0.00  0.00  0.98  0.00
  HS02004785HS02004788    1.00   0.00  0.00  0.00  1.00  0.00  0.00  0.00  0.00  0.00
  HS02004777HS02004785    1.00   0.00  0.00  0.00  1.00  0.00  0.00  0.00  0.14  0.00
  HS02004480HS02004478    1.00   0.04  0.00  0.00  0.66  0.00  0.00  0.30  0.00  0.00
  HS02004479HS02004480    1.00   0.02  0.00  0.00  0.98  0.00  0.00  0.00  0.13  0.00
  HS02004862HS02004870    1.00   0.00  0.00  0.00  1.00  0.00  0.00  0.00  0.05  0.00
  HS02004848HS02004852    1.00   0.03  0.00  0.00  0.97  0.00  0.00  0.00  0.61  0.00
  HS02004856HS02004862    1.00   0.00  0.05  0.00  0.95  0.00  0.00  0.00  0.80  0.00
  HS02004852HS02004856    1.00   0.03  0.00  0.00  0.96  0.00  0.00  0.00  0.85  0.00
  HS02004802HS02004478    1.00   0.04  0.00  0.00  0.96  0.00  0.00  0.00  0.03  0.00
  HS02004478WS02006287    1.00   0.04  0.00  0.00  0.73  0.23  0.00  0.00  0.66  0.00
  HS02004817HS02004807    1.00   0.00  0.03  0.00  0.97  0.00  0.00  0.00  0.01  0.00
  HS02004807HS02004802    1.00   0.03  0.00  0.00  0.96  0.00  0.00  0.00  0.00  0.00
  YS02001759YS02001757    1.00   0.00  0.00  0.00  1.00  0.00  0.00  0.00  0.16  0.00
  YS02001762YS02001759    1.00   0.00  0.00  0.00  1.00  0.00  0.00  0.00  0.03  0.00
  YS02001765YS02001762    1.00   0.00  0.00  0.00  1.00  0.00  0.00  0.00  0.16  0.00
  YS02001770YS02001767    1.00   0.00  0.00  0.00  1.00  0.00  0.00  0.00  0.00  0.00
  YS02001774YS02001770    1.00   0.00  0.03  0.00  0.96  0.00  0.00  0.00  0.04  0.00
  YS02001779YS02001774    1.00   0.00  0.00  0.00  1.00  0.00  0.00  0.00  0.21  0.00
  YS02001649YS02001757    1.00   0.00  0.00  0.00  1.00  0.00  0.00  0.00  0.17  0.00
  YS02001767YS02001765    1.00   0.00  0.00  0.00  1.00  0.00  0.00  0.00  0.00  0.00
  YS02006561YS02001783    1.00   0.05  0.00  0.00  0.29  0.66  0.00  0.00  0.52  0.00
  YS02001783YS02001784    1.00   0.00  0.05  0.00  0.95  0.00  0.00  0.00  0.01  0.00
  YS02001784YS02001785    1.00   0.00  0.00  0.00  1.00  0.00  0.00  0.00  0.20  0.00
  YS02001788YS02001790    1.00   0.00  0.00  0.00  0.33  0.67  0.00  0.00  0.48  0.00
  YS02001790YS02001791    1.00   0.00  0.00  0.00  0.30  0.70  0.00  0.00  0.52  0.00
  YS02001791YS02001793    1.00   0.00  0.00  0.00  0.30  0.70  0.00  0.00  0.01  0.00
  YS02001910YS02001907    1.00   0.00  0.00  0.00  0.98  0.00  0.00  0.02  0.13  0.00
  YS02001786YS02001788    1.00   0.00  0.00  0.00  0.32  0.68  0.00  0.00  0.00  0.00
  YS02001915YS02001910    1.00   0.00  0.00  0.00  0.99  0.01  0.00  0.00  0.18  0.00
  YS02001918YS02001915    1.00   0.00  0.01  0.00  0.99  0.00  0.00  0.00  0.58  0.00
  YS02001923YS02001920    1.00   0.00  0.00  0.00  1.00  0.00  0.00  0.00  0.86  0.00
  YS02001926YS02001923    1.00   0.00  0.03  0.00  0.13  0.00  0.85  0.00  0.00  0.00
  YS02001929YS02001926    1.00   0.00  0.03  0.00  0.97  0.00  0.00  0.00  0.78  0.00
  YS02001920YS02001918    1.00   0.00  0.01  0.00  0.99  0.00  0.00  0.00  0.00  0.00
  YS02001629YS02163301    1.00   0.04  0.00  0.00  0.96  0.00  0.00  0.00  0.00  0.00
  YS02001619YS02001622    1.00   0.03  0.00  0.00  0.97  0.00  0.00  0.00  0.00  0.00
  YS02001622YS02001625    1.00   0.03  0.00  0.00  0.97  0.00  0.00  0.00  0.07  0.00
  YS02001625YS02001629    1.00   0.04  0.01  0.00  0.93  0.00  0.02  0.00  0.00  0.00
  YS02163301YS02001633    1.00   0.00  0.04  0.00  0.96  0.00  0.00  0.00  0.00  0.00
  YS02163601YS02164001    1.00   0.00  0.03  0.00  0.97  0.00  0.00  0.00  0.00  0.00
  YS02164001YS02001641    1.00   0.01  0.02  0.00  0.97  0.00  0.00  0.00  0.06  0.00
  YS02001641YS02001644    1.00   0.00  0.01  0.00  0.99  0.00  0.00  0.00  0.00  0.00
  YS02001647YS02001649    1.00   0.00  0.04  0.00  0.95  0.00  0.00  0.00  0.01  0.00
  YS02006553YS02006556    1.00   0.02  0.00  0.00  0.98  0.00  0.00  0.00  0.03  0.00
  YS02006556YS02006558    1.00   0.00  0.00  0.00  1.00  0.00  0.00  0.00  0.00  0.00
  YSB6556YSB1171          1.00   0.02  0.01  0.00  0.97  0.00  0.00  0.00  0.00  0.00
  YS02001907YS02006553    1.00   0.00  0.01  0.00  0.98  0.00  0.00  0.00  0.00  0.00
  YS02006558YS02006561    1.00   0.05  0.00  0.00  0.16  0.79  0.00  0.00  0.47  0.00
  YS02001633YS02163601    1.00   0.00  0.01  0.00  0.99  0.00  0.00  0.00  0.16  0.00
  YS02001644YS02001647    1.00   0.00  0.05  0.00  0.95  0.00  0.00  0.00  0.00  0.00
  YS02001745YS02001748    1.00   0.00  0.00  0.00  0.89  0.01  0.00  0.10  0.05  0.00
  YS02001748YS02001751    1.00   0.00  0.00  0.00  0.97  0.03  0.00  0.00  0.15  0.00
  YS02001751YS02001754    1.00   0.00  0.00  0.00  0.95  0.00  0.00  0.05  0.02  0.00
  YS02001754YS02001757    1.00   0.00  0.00  0.00  0.99  0.01  0.00  0.00  0.20  0.00
  YS02001882YS02001884    1.00   0.04  0.00  0.00  0.96  0.00  0.00  0.00  0.00  0.00
  YS02001884YS02001887    1.00   0.02  0.01  0.00  0.97  0.00  0.00  0.00  0.00  0.00
  YS02001890YS02001895    1.00   0.00  0.04  0.00  0.96  0.00  0.00  0.00  0.00  0.00
  YS02001895YS02001898    1.00   0.04  0.00  0.00  0.95  0.00  0.01  0.00  0.00  0.00
  YS02001898YS02001901    1.00   0.04  0.00  0.00  0.96  0.00  0.00  0.00  0.02  0.00
  YS02001901YS02001904    1.00   0.04  0.00  0.00  0.96  0.00  0.00  0.00  0.00  0.00
  YS02001904YS02001907    1.00   0.00  0.04  0.00  0.96  0.00  0.00  0.00  0.00  0.00
  YS02001887YS02001890    1.00   0.00  0.00  0.00  0.98  0.00  0.02  0.00  0.00  0.00
  YS02001652YS02001649    1.00   0.00  0.00  0.00  1.00  0.00  0.00  0.00  0.18  0.00
  YS02001655YS02001652    1.00   0.00  0.00  0.00  0.95  0.00  0.00  0.05  0.02  0.00
  YS02001658YS02001655    1.00   0.00  0.04  0.00  0.93  0.03  0.00  0.00  0.11  0.00
  YS02001661YS02001658    1.00   0.04  0.00  0.00  0.89  0.07  0.00  0.00  0.06  0.00
  YS02001664YS02001661    1.00   0.03  0.00  0.00  0.87  0.10  0.00  0.00  0.22  0.00
  YSB1154YSB6556          1.00   0.03  0.00  0.00  0.97  0.00  0.00  0.00  0.02  0.00
  YSB1174YSB1171          1.00   0.02  0.01  0.00  0.97  0.00  0.00  0.00  0.00  0.00
  YSB1171HS02004479       1.00   0.02  0.00  0.00  0.98  0.00  0.00  0.00  0.11  0.00
  HS02004881HS02006253    1.00   0.02  0.00  0.00  0.86  0.01  0.00  0.12  0.69  0.00
  YS02001793JiankangQianchi    1.00   0.00  0.00  0.00  0.55  0.45  0.00  0.00  0.21  0.00
  YS02001757CaochengTiaoxuchi    1.00   0.00  0.07  0.00  0.92  0.01  0.00  0.00  0.00  0.00
  WSF200WS02003060        1.00   0.00  0.07  0.00  0.67  0.26  0.00  0.00  0.10  0.00
  1                       1.00   0.00  0.00  0.00  0.00  1.00  0.00  0.00  0.33  0.00
  2                       1.00   0.82  0.00  0.00  0.00  0.17  0.00  0.00  0.01  0.00
  3                       1.00   0.08  0.00  0.00  0.00  0.92  0.00  0.00  0.02  0.00
  4                       1.00   1.00  0.00  0.00  0.00  0.00  0.00  0.00  0.00  0.00
  
  
  *************************
  Conduit Surcharge Summary
  *************************
  
  ----------------------------------------------------------------------------
                                                           Hours        Hours 
                         --------- Hours Full --------   Above Full   Capacity
  Conduit                Both Ends  Upstream  Dnstream   Normal Flow   Limited
  ----------------------------------------------------------------------------
  WS02006229WS02006228        1.60      1.65      1.60      5.23         1.60
  WS02006256WS02006235        6.06      6.06      7.57      4.52         0.01
  WS02006249WS02006248        0.01      0.01      0.01      5.24         0.01
  WS02006247WS02006245        0.01      0.01      0.01      5.42         0.01
  WS02006243WS02006242        0.01      0.01      1.01      0.01         0.01
  WS02006242WS02006240        0.87      0.87      1.12      0.01         0.01
  WS02006240WS02006239        0.93      0.93      1.01      0.01         0.01
  WS02006239WS02006238        1.15      1.15      1.22      0.01         0.01
  WS02006238WS02006235        1.20      1.20      1.30      0.01         0.01
  WS02006235WS02006234        1.03      1.03      1.17      6.09         0.01
  WS02006234WS02006232        1.12      1.12      1.41      0.01         0.01
  WS02006232WS02006231        0.88      0.88      1.41      0.01         0.01
  WS02006231WS02006230        0.55      0.55      0.92      6.05         0.01
  WS02006230WS02006229        2.36      4.62      2.36      6.12         2.36
  WS02006228WS02006109        1.63      1.93      1.63      5.77         1.63
  WS02006112WS02006115        0.01      0.01      1.23      0.01         0.01
  WS02006111WS02006112        0.01      0.01      5.41      0.01         0.01
  WS02006110WS02006113        0.01      0.01      1.72      0.01         0.01
  WS02006109WS02006110        1.10      1.10      1.93      1.11         0.01
  WS02004406WS02004407        0.01      0.01      0.25      0.01         0.01
  WS02004405WS02004406        0.25      0.52      0.25      1.17         0.25
  WS02004404WS02004405        0.52      0.73      0.52      6.00         0.52
  WS02004403WS02004404        0.01      0.01      0.73      0.01         0.01
  WS02003072WS02003073        0.01      0.01      0.01      5.75         0.01
  HS02004480HS02004478        0.01      0.01      0.01      0.25         0.01
  YS02001759YS02001757        5.66      5.66      5.74      0.01         0.01
  YS02001762YS02001759        5.64      5.64      5.66      0.01         0.01
  YS02001765YS02001762        5.61      5.61      5.64      0.01         0.01
  YS02001770YS02001767        5.58      5.58      5.58      0.32         0.73
  YS02001774YS02001770        5.56      5.56      5.63      0.01         0.01
  YS02001779YS02001774        5.39      5.39      5.63      0.01         0.01
  YS02001649YS02001757        5.64      5.64      5.74      0.01         0.01
  YS02001767YS02001765        5.58      5.58      5.61      0.01         0.01
  YS02006561YS02001783        0.65      0.65      1.20      0.01         0.01
  YS02001783YS02001784        1.20      1.20      1.23      1.15         0.98
  YS02001784YS02001785        1.20      1.23      1.20      2.10         1.20
  YS02001788YS02001790        1.19      1.19      1.66      0.01         0.01
  YS02001790YS02001791        1.66      1.66      1.69      0.48         0.48
  YS02001791YS02001793        1.69      1.69      1.80      0.01         0.01
  YS02001910YS02001907        0.97      0.97      1.49      0.01         0.01
  YS02001786YS02001788        1.19      1.20      1.19      1.67         1.18
  YS02001915YS02001910        0.76      0.76      0.97      0.01         0.01
  YS02001918YS02001915        0.52      0.52      0.76      0.01         0.01
  YS02001923YS02001920        0.30      0.30      0.55      0.01         0.01
  YS02001920YS02001918        0.52      0.52      0.55      0.01         0.01
  YS02001629YS02163301        5.56      5.56      5.58      0.01         0.01
  YS02001619YS02001622        5.23      5.23      5.26      0.01         0.01
  YS02001622YS02001625        5.26      5.26      5.43      0.01         0.01
  YS02001625YS02001629        5.24      5.24      5.43      0.01         0.01
  YS02163301YS02001633        5.58      5.58      5.61      0.01         0.01
  YS02163601YS02164001        5.61      5.61      5.64      0.01         0.01
  YS02164001YS02001641        5.61      5.61      5.62      0.01         0.02
  YS02001641YS02001644        5.62      5.62      5.62      1.22         1.22
  YS02001647YS02001649        5.42      5.42      5.64      0.01         0.01
  YS02006553YS02006556        1.19      1.19      1.54      0.01         0.01
  YS02006556YS02006558        1.36      1.36      1.62      0.01         0.01
  YS02001907YS02006553        2.09      2.09      2.30      0.01         0.01
  YS02006558YS02006561        0.88      1.15      0.88      1.94         0.88
  YS02001633YS02163601        5.60      5.60      5.64      0.01         0.01
  YS02001644YS02001647        5.42      5.42      5.62      0.01         0.01
  YS02001745YS02001748        0.01      0.01      5.05      0.01         0.01
  YS02001748YS02001751        5.10      5.10      5.21      0.01         0.01
  YS02001751YS02001754        5.21      5.21      5.40      0.01         0.01
  YS02001754YS02001757        5.42      5.42      5.74      0.01         0.01
  YS02001882YS02001884        0.78      0.78      0.82      0.01         0.01
  YS02001884YS02001887        0.87      0.87      0.90      0.01         0.01
  YS02001890YS02001895        0.75      0.75      0.99      0.01         0.01
  YS02001895YS02001898        0.74      0.74      0.75      0.01         0.01
  YS02001898YS02001901        0.76      0.76      0.86      0.01         0.01
  YS02001901YS02001904        0.84      0.84      0.86      0.01         0.01
  YS02001904YS02001907        0.84      0.84      1.56      0.01         0.01
  YS02001887YS02001890        0.93      0.93      0.96      0.01         0.01
  YS02001652YS02001649        5.43      5.43      5.64      0.01         0.01
  YS02001655YS02001652        5.26      5.26      5.41      0.01         0.01
  YS02001658YS02001655        5.09      5.09      5.26      0.01         0.01
  YS02001661YS02001658        0.21      0.21      5.09      0.01         0.01
  YS02001664YS02001661        0.01      0.01      1.20      0.01         0.01
  YS02001793JiankangQianchi        1.77      1.77      3.18      0.01         0.01
  YS02001757CaochengTiaoxuchi        4.90      4.90      5.74      0.01         0.01
  3                           0.01      0.01      0.01      0.01         0.01
  
  
  ***************
  Pumping Summary
  ***************
  
  ---------------------------------------------------------------------------------------------------------
                                                  Min       Avg       Max     Total     Power    % Time Off
                        Percent   Number of      Flow      Flow      Flow    Volume     Usage    Pump Curve
  Pump                 Utilized   Start-Ups       LPS       LPS       LPS  10^6 ltr     Kw-hr    Low   High
  ---------------------------------------------------------------------------------------------------------
  CC-Pump-1                0.00           0      0.00      0.00      0.00     0.000      0.00    0.0    0.0
  CC-Pump-2               73.69           2      0.00    190.81    200.00     3.941      4.66    0.0   10.6
  JK-Pump-1               63.83           6      0.00    170.65    300.00     2.243     28.20    0.0    0.0
  JK-Pump-2              100.00           1      0.00    204.42    300.00     4.555     55.46    0.0    0.0
  XR-Pump-1               82.97           8      0.00     67.24     95.00     1.682     18.71    0.0    0.0
  XR-Pump-2                0.00           0      0.00      0.00      0.00     0.000      0.00    0.0    0.0
  XR-Pump-3              100.00           2      0.00     92.12     95.00     2.622     24.78    0.0    0.0
  XR-Pump-4               97.86           7      0.00     79.32     95.00     2.280     22.77    0.0    0.0
  

  Analysis begun on:  Thu Jan  6 15:14:19 2022
  Analysis ended on:  Thu Jan  6 15:14:22 2022
  Total elapsed time: 00:00:03