
  EPA STORM WATER MANAGEMENT MODEL - VERSION 5.1 (Build 5.3.0.dev0)
  --------------------------------------------------------------

  WARNING 04: minimum elevation drop used for Conduit WS02004404WS02004405
  WARNING 03: negative offset ignored for Link YS02001904YS02001907
  
  *********************************************************
  NOTE: The summary statistics displayed in this report are
  based on results found at every computational time step,  
  not just on results from each reporting time step.
  *********************************************************
  
  ****************
  Analysis Options
  ****************
  Flow Units ............... LPS
  Process Models:
    Rainfall/Runoff ........ YES
    RDII ................... NO
    Snowmelt ............... NO
    Groundwater ............ NO
    Flow Routing ........... YES
    Ponding Allowed ........ NO
    Water Quality .......... NO
  Infiltration Method ...... HORTON
  Flow Routing Method ...... DYNWAVE
  Surcharge Method ......... EXTRAN
  Starting Date ............ 08/28/2015 08:00:00
  Ending Date .............. 08/28/2015 15:50:00
  Antecedent Dry Days ...... 8.0
  Report Time Step ......... 00:01:00
  Wet Time Step ............ 00:01:00
  Dry Time Step ............ 00:01:00
  Routing Time Step ........ 5.00 sec
  Variable Time Step ....... YES
  Maximum Trials ........... 8
  Number of Threads ........ 4
  Head Tolerance ........... 0.001500 m
  
  
  **************************        Volume         Depth
  Runoff Quantity Continuity     hectare-m            mm
  **************************     ---------       -------
  Total Precipitation ......         6.144        13.452
  Evaporation Loss .........         0.000         0.000
  Infiltration Loss ........         1.572         3.442
  Surface Runoff ...........         3.480         7.619
  Final Storage ............         1.093         2.393
  Continuity Error (%) .....        -0.016
  
  
  **************************        Volume        Volume
  Flow Routing Continuity        hectare-m      10^6 ltr
  **************************     ---------     ---------
  Dry Weather Inflow .......         0.616         6.165
  Wet Weather Inflow .......         3.479        34.789
  Groundwater Inflow .......         0.000         0.000
  RDII Inflow ..............         0.000         0.000
  External Inflow ..........         0.102         1.024
  External Outflow .........         2.007        20.069
  Flooding Loss ............         1.672        16.716
  Evaporation Loss .........         0.000         0.000
  Exfiltration Loss ........         0.000         0.000
  Initial Stored Volume ....         0.076         0.761
  Final Stored Volume ......         0.653         6.530
  Continuity Error (%) .....        -1.349
  
  
  *************************
  Highest Continuity Errors
  *************************
  Node HS02004842 (15.27%)
  Node YS02001884 (12.36%)
  Node JK-storage (-6.20%)
  Node YSB1171 (2.79%)
  Node HS02004817 (2.78%)
  
  
  ***************************
  Time-Step Critical Elements
  ***************************
  Link 3 (46.84%)
  Link WS02006252WS02006251 (46.57%)
  Link WS02006280WS02006229 (1.92%)
  
  
  ********************************
  Highest Flow Instability Indexes
  ********************************
  Link YS02163601YS02164001 (43)
  Link YS02163301YS02001633 (42)
  Link YS02001629YS02163301 (41)
  Link YS02001619YS02001622 (38)
  Link YS02164001YS02001641 (38)
  
  
  *************************
  Routing Time Step Summary
  *************************
  Minimum Time Step           :     0.15 sec
  Average Time Step           :     0.80 sec
  Maximum Time Step           :     5.00 sec
  Percent in Steady State     :    -0.00
  Average Iterations per Step :     4.46
  Percent Not Converging      :    18.52
  
  
  ***************************
  Subcatchment Runoff Summary
  ***************************
  
  ------------------------------------------------------------------------------------------------------------------------------
                            Total      Total      Total      Total     Imperv       Perv      Total       Total     Peak  Runoff
                           Precip      Runon       Evap      Infil     Runoff     Runoff     Runoff      Runoff   Runoff   Coeff
  Subcatchment                 mm         mm         mm         mm         mm         mm         mm    10^6 ltr      LPS
  ------------------------------------------------------------------------------------------------------------------------------
  sub0                      13.45       0.00       0.00       0.89      11.25       0.05      11.30        0.01     3.67   0.840
  sub1                      13.45       0.00       0.00       1.45      10.71       0.03      10.74        0.07    24.31   0.799
  sub2                      13.45       0.00       0.00       4.95       7.56       0.02       7.58        0.07    22.93   0.564
  sub3                      13.45       0.00       0.00       4.96       7.52       0.02       7.54        0.17    51.30   0.560
  sub4                      13.45       0.00       0.00       1.46      10.54       0.02      10.56        0.22    61.94   0.785
  sub5                      13.45       0.00       0.00       0.91      11.19       0.03      11.22        0.13    43.21   0.834
  sub7                      13.45       0.00       0.00       1.17      10.98       0.04      11.03        0.04    13.69   0.820
  sub8                      13.45       0.00       0.00       1.17      10.97       0.04      11.01        0.07    25.15   0.819
  sub9                      13.45       0.00       0.00       1.17      10.97       0.04      11.01        0.05    18.81   0.818
  sub10                     13.45       0.00       0.00       1.04      11.08       0.03      11.11        0.12    42.29   0.826
  sub11                     13.45       0.00       0.00       1.04      11.10       0.04      11.14        0.13    46.68   0.828
  sub12                     13.45       0.00       0.00       1.69      10.51       0.06      10.58        0.09    35.94   0.786
  sub14                     13.45       0.00       0.00       1.17      10.97       0.04      11.01        0.10    37.02   0.818
  sub15                     13.45       0.00       0.00       4.00       8.43       0.04       8.47        0.15    51.03   0.630
  sub16                     13.45       0.00       0.00       4.38       8.09       0.06       8.15        0.09    32.58   0.606
  sub17                     13.45       0.00       0.00       4.25       8.21       0.06       8.27        0.07    26.73   0.615
  sub22                     13.45       0.00       0.00       5.74       6.88       0.04       6.92        0.44   159.06   0.514
  sub23                     13.45       0.00       0.00       4.93       7.60       0.05       7.65        0.36   133.95   0.569
  sub60                     13.45       0.00       0.00       1.61       8.73       0.00       8.74        2.65   387.96   0.649
  sub61                     13.45       0.00       0.00       2.28       8.88       0.00       8.88        2.74   483.52   0.660
  sub62                     13.45       0.00       0.00       1.07       9.65       0.00       9.66        2.97   496.42   0.718
  sub63                     13.45       0.00       0.00       3.90       7.77       0.00       7.77        2.35   446.68   0.578
  sub64                     13.45       0.00       0.00       2.01       8.38       0.00       8.38        2.55   368.35   0.623
  sub65                     13.45       0.00       0.00       1.75       8.52       0.00       8.52        2.62   373.60   0.634
  sub66                     13.45       0.00       0.00       3.90       7.19       0.00       7.19        2.21   337.96   0.535
  sub67                     13.45       0.00       0.00       1.07      10.19       0.01      10.19        3.15   622.58   0.758
  sub68                     13.45       0.00       0.00       1.88       9.34       0.01       9.34        2.87   531.38   0.694
  sub69                     13.45       0.00       0.00       2.01       9.68       0.01       9.69        2.26   503.32   0.720
  sub70                     13.45       9.89       0.00       7.67      12.93       0.26      13.20        3.02   423.72   0.565
  sub71                     13.45       0.00       0.00       1.07       9.40       0.00       9.40        2.22   347.35   0.699
  sub72                     13.45       0.00       0.00       0.94       7.49       0.00       7.50        1.53   163.23   0.557
  sub73                     13.45      12.84       0.00       8.67      14.26       0.27      14.53        3.41   375.92   0.552
  sub74                     13.45       0.00       0.00      10.09       2.88       0.00       2.89        1.15   273.25   0.215
  
  
  ******************
  Node Depth Summary
  ******************
  
  ---------------------------------------------------------------------------------
                                 Average  Maximum  Maximum  Time of Max    Reported
                                   Depth    Depth      HGL   Occurrence   Max Depth
  Node                 Type       Meters   Meters   Meters  days hr:min      Meters
  ---------------------------------------------------------------------------------
  WS02001211           JUNCTION     0.65     0.76     5.60     0  03:08        0.76
  WS02001212           JUNCTION     0.38     0.49     5.56     0  03:07        0.49
  WS02001213           JUNCTION     0.62     0.77     5.53     0  03:07        0.77
  WS02003069           JUNCTION     0.45     0.64     5.22     0  03:06        0.64
  WS02003072           JUNCTION     0.52     0.69     5.06     0  03:07        0.69
  WS02003073           JUNCTION     0.31     0.43     4.49     0  03:07        0.43
  WS02003060           JUNCTION     0.40     0.56     5.50     0  03:05        0.56
  WS02003066           JUNCTION     0.25     0.36     5.91     0  03:05        0.36
  WS02003059           JUNCTION     0.68     0.83     5.52     0  03:06        0.83
  WS02003067           JUNCTION     0.60     0.79     6.11     0  03:04        0.79
  WS02004401           JUNCTION     0.72     1.10     7.10     0  03:03        1.10
  WS02004402           JUNCTION     0.75     1.11     7.07     0  03:03        1.11
  WS02004403           JUNCTION     0.77     1.10     7.03     0  03:03        1.10
  WS02004404           JUNCTION     0.84     1.15     7.00     0  03:03        1.15
  WS02004406           JUNCTION     0.84     1.10     6.93     0  03:03        1.10
  WS02004409           JUNCTION     0.53     0.85     6.62     0  03:04        0.85
  WS02004410           JUNCTION     0.55     0.85     6.57     0  03:04        0.85
  WS02004411           JUNCTION     0.56     0.84     6.52     0  03:04        0.84
  WS02004412           JUNCTION     0.58     0.83     6.47     0  03:04        0.83
  WS02004413           JUNCTION     0.73     0.97     6.44     0  03:04        0.97
  WS02004405           JUNCTION     0.83     1.13     6.98     0  03:03        1.13
  WS02006109           JUNCTION     0.80     1.26     7.88     0  03:02        1.25
  WS02006110           JUNCTION     0.78     1.11     7.69     0  03:02        1.10
  WS02006111           JUNCTION     0.24     0.60     7.30     0  03:03        0.60
  WS02006112           JUNCTION     0.89     1.38     7.26     0  03:03        1.37
  WS02006113           JUNCTION     0.37     0.61     7.50     0  03:02        0.61
  WS02006115           JUNCTION     0.61     1.06     7.20     0  03:03        1.06
  WS02006116           JUNCTION     0.69     1.11     7.15     0  03:03        1.11
  WS02006230           JUNCTION     0.79     1.38     8.13     0  03:02        1.37
  WS02006231           JUNCTION     0.53     1.02     8.14     0  03:02        1.01
  WS02006232           JUNCTION     0.67     1.11     8.15     0  03:02        1.09
  WS02006234           JUNCTION     0.58     1.00     8.15     0  03:02        0.99
  WS02006235           JUNCTION     0.61     1.00     8.17     0  03:01        0.99
  WS02006238           JUNCTION     0.64     1.02     8.17     0  03:02        1.02
  WS02006240           JUNCTION     0.53     0.89     8.18     0  03:02        0.88
  WS02006242           JUNCTION     0.58     0.93     8.20     0  03:02        0.92
  WS02006243           JUNCTION     0.45     0.78     8.20     0  03:02        0.78
  WS02006245           JUNCTION     0.43     0.73     8.21     0  03:02        0.73
  WS02006247           JUNCTION     0.44     0.72     8.22     0  03:02        0.72
  WS02006248           JUNCTION     0.39     0.64     8.23     0  03:02        0.64
  WS02006249           JUNCTION     0.42     0.64     8.23     0  03:02        0.64
  WS02006239           JUNCTION     0.59     0.97     8.18     0  03:02        0.96
  WS02006251           JUNCTION     0.40     0.62     8.29     0  03:02        0.62
  WS02006252           JUNCTION     0.32     0.35     8.59     0  02:06        0.35
  WS02006253           JUNCTION     0.43     0.65     8.30     0  03:02        0.65
  WS02006256           JUNCTION     1.08     1.23     8.16     0  03:00        1.23
  WS02004138           JUNCTION     0.15     0.17     7.42     0  00:20        0.17
  WS02004407           JUNCTION     0.24     0.36     6.68     0  03:03        0.36
  WS02006228           JUNCTION     0.81     1.38     8.03     0  03:02        1.37
  WS02006229           JUNCTION     0.79     1.41     8.11     0  03:02        1.41
  WS02006280           JUNCTION     0.08     0.24     8.52     0  03:02        0.24
  WS02006284           JUNCTION     0.38     0.63     9.02     0  03:02        0.62
  WS02006287           JUNCTION     0.11     0.37     9.32     0  03:02        0.37
  WSF200               JUNCTION     0.24     0.40     5.63     0  03:05        0.39
  HS02004901           JUNCTION     0.14     0.35    10.17     0  03:01        0.35
  HS02004881           JUNCTION     0.01     0.05     9.08     0  03:01        0.05
  HS02004876           JUNCTION     0.05     0.15     9.18     0  03:01        0.15
  HS02004870           JUNCTION     0.02     0.09     9.37     0  03:01        0.09
  HS02004862           JUNCTION     0.02     0.10     9.49     0  03:01        0.10
  HS02004856           JUNCTION     0.08     0.15     9.57     0  03:01        0.15
  HS02004852           JUNCTION     0.01     0.07     9.58     0  03:02        0.07
  HS02004848           JUNCTION     0.01     0.06     9.67     0  03:01        0.06
  HS02004842           JUNCTION     0.33     0.40     9.67     0  03:01        0.40
  HS02004837           JUNCTION     0.03     0.09     9.67     0  03:01        0.09
  HS02004830           JUNCTION     0.04     0.10     9.57     0  03:01        0.10
  HS02004824           JUNCTION     0.03     0.11     9.51     0  03:02        0.11
  HS02004817           JUNCTION     0.45     0.67     9.52     0  03:02        0.67
  HS02004807           JUNCTION     0.14     0.34     9.51     0  03:02        0.34
  HS02004802           JUNCTION     0.17     0.38     9.50     0  03:02        0.38
  HS02004799           JUNCTION     0.13     0.43     9.65     0  03:01        0.43
  HS02004792           JUNCTION     0.04     0.20     9.72     0  03:01        0.19
  HS02004788           JUNCTION     0.03     0.14    10.04     0  03:02        0.14
  HS02004785           JUNCTION     0.06     0.23    10.13     0  03:02        0.23
  HS02004777           JUNCTION     0.16     0.37    10.17     0  03:01        0.37
  HS02004770           JUNCTION     0.13     0.34    10.17     0  03:01        0.34
  HS02004480           JUNCTION     0.09     0.35     9.59     0  03:01        0.35
  HS02004479           JUNCTION     0.13     0.39     9.60     0  03:01        0.39
  HS02004478           JUNCTION     0.07     0.26     9.48     0  03:01        0.26
  YS02001745           JUNCTION     0.70     0.89     8.40     0  03:29        0.89
  YS02001748           JUNCTION     1.09     2.27     9.35     0  02:46        1.32
  YS02001751           JUNCTION     1.27     2.20     9.08     0  02:46        1.53
  YS02001754           JUNCTION     1.52     2.16     8.77     0  02:46        1.81
  YS02001762           JUNCTION     1.72     2.09     8.49     0  02:46        2.03
  YS02001765           JUNCTION     1.67     2.04     8.49     0  02:46        1.98
  YS02001767           JUNCTION     1.64     1.97     8.46     0  02:46        1.93
  YS02001770           JUNCTION     1.63     1.95     8.44     0  02:46        1.91
  YS02001774           JUNCTION     1.70     2.02     8.45     0  02:46        1.97
  YS02001779           JUNCTION     1.45     1.68     8.37     0  02:44        1.68
  YS02001882           JUNCTION     0.59     1.70     8.42     0  02:50        1.62
  YS02001884           JUNCTION     0.69     1.78     8.40     0  02:50        1.73
  YS02001759           JUNCTION     1.75     2.11     8.48     0  02:46        2.06
  YS02001887           JUNCTION     0.76     1.84     8.37     0  02:50        1.80
  YS02001890           JUNCTION     0.79     1.81     8.32     0  02:50        1.81
  YS02001898           JUNCTION     0.56     1.65     8.38     0  02:50        1.56
  YS02001901           JUNCTION     0.68     1.74     8.35     0  02:50        1.67
  YS02001904           JUNCTION     0.66     1.66     8.29     0  02:50        1.63
  YS02001907           JUNCTION     0.98     1.96     8.25     0  02:50        1.96
  YS02001910           JUNCTION     0.78     1.89     8.39     0  02:53        1.78
  YS02001915           JUNCTION     0.58     1.84     8.56     0  02:53        1.62
  YS02001918           JUNCTION     0.32     1.81     8.87     0  02:53        1.33
  YS02001619           JUNCTION     1.24     1.61     8.54     0  02:41        1.48
  YS02001629           JUNCTION     1.59     1.85     8.40     0  02:42        1.84
  YS02001641           JUNCTION     1.69     1.94     8.38     0  02:46        1.93
  YS02001644           JUNCTION     1.69     1.92     8.35     0  02:45        1.92
  YS02001652           JUNCTION     1.53     2.16     8.76     0  02:54        1.98
  YS02001655           JUNCTION     1.30     2.20     9.05     0  02:41        1.91
  YS02001920           JUNCTION     0.42     1.56     8.57     0  02:53        1.42
  YS02001923           JUNCTION     0.25     1.32     8.58     0  02:54        1.20
  YS02001926           JUNCTION     0.29     1.90     9.35     0  02:53        1.00
  YS02001929           JUNCTION     0.17     0.88     8.57     0  02:54        0.80
  YS02001658           JUNCTION     1.03     2.30     9.44     0  02:42        1.85
  YS02001661           JUNCTION     0.81     2.46     9.86     0  02:57        1.55
  YS02001664           JUNCTION     0.36     0.57     8.49     0  02:53        0.56
  YS02001622           JUNCTION     1.26     1.62     8.52     0  02:41        1.50
  YS02001633           JUNCTION     1.68     1.96     8.42     0  02:46        1.94
  YS02001649           JUNCTION     1.73     2.05     8.44     0  02:54        2.05
  YS02001757           JUNCTION     1.85     2.21     8.47     0  02:46        2.17
  YS02001895           JUNCTION     0.56     1.62     8.37     0  02:50        1.56
  YS02001625           JUNCTION     1.54     1.78     8.38     0  02:42        1.78
  YS02163301           JUNCTION     1.62     1.91     8.42     0  02:46        1.88
  YS02163601           JUNCTION     1.73     2.01     8.41     0  02:46        1.98
  YS02164001           JUNCTION     1.67     1.94     8.40     0  02:46        1.91
  YS02001647           JUNCTION     1.52     1.81     8.42     0  02:46        1.79
  YSB1154              JUNCTION     0.27     0.54     9.60     0  03:01        0.54
  YSB6556              JUNCTION     0.16     0.43     9.60     0  03:02        0.43
  YSB1174              JUNCTION     0.22     0.49     9.60     0  03:01        0.49
  YSB1171              JUNCTION     0.42     0.69     9.60     0  03:01        0.69
  YS02006553           JUNCTION     0.99     1.97     8.25     0  03:01        1.96
  YS02006561           JUNCTION     0.35     1.65     8.31     0  02:50        1.08
  YS02006556           JUNCTION     0.95     1.99     8.31     0  02:50        1.93
  YS02006558           JUNCTION     0.99     2.07     8.33     0  02:50        1.97
  YS02001783           JUNCTION     0.59     1.86     8.01     0  02:50        1.47
  YS02001784           JUNCTION     0.61     1.82     7.88     0  02:50        1.41
  YS02001786           JUNCTION     0.55     2.11     8.14     0  02:50        1.26
  YS02001788           JUNCTION     0.49     2.28     8.26     0  02:50        1.13
  YS02001790           JUNCTION     0.63     1.96     7.60     0  02:49        1.29
  YS02001791           JUNCTION     0.62     1.95     7.42     0  02:49        1.27
  YS02001793           JUNCTION     0.85     2.05     6.88     0  02:50        1.80
  WS02004139           JUNCTION     0.59     0.70     5.61     0  03:08        0.70
  WSC                  OUTFALL      0.31     0.43     1.10     0  03:08        0.43
  3                    OUTFALL      0.11     0.22     6.22     0  03:00        0.22
  4                    OUTFALL      0.01     0.14     7.14     0  03:02        0.14
  5                    OUTFALL      0.00     0.00     5.00     0  00:00        0.00
  JK-storage           STORAGE      3.04     5.80     6.60     0  02:50        5.80
  CC-storage           STORAGE      1.07     1.38     8.38     0  03:30        1.38
  XR-storage           STORAGE      7.43     7.72     5.72     0  02:31        7.72
  
  
  *******************
  Node Inflow Summary
  *******************
  
  -------------------------------------------------------------------------------------------------
                                  Maximum  Maximum                  Lateral       Total        Flow
                                  Lateral    Total  Time of Max      Inflow      Inflow     Balance
                                   Inflow   Inflow   Occurrence      Volume      Volume       Error
  Node                 Type           LPS      LPS  days hr:min    10^6 ltr    10^6 ltr     Percent
  -------------------------------------------------------------------------------------------------
  WS02001211           JUNCTION      7.35   293.88     0  03:10       0.207        6.37       0.364
  WS02001212           JUNCTION      0.00   295.73     0  03:10           0        6.35       0.196
  WS02001213           JUNCTION      0.00   297.83     0  03:11           0        6.34       0.275
  WS02003069           JUNCTION      0.32  1097.30     0  03:06     0.00902        15.1       0.157
  WS02003072           JUNCTION      0.00  1097.08     0  03:06           0        15.1       0.201
  WS02003073           JUNCTION      1.82  1098.97     0  03:07      0.0514        15.1       0.220
  WS02003060           JUNCTION     16.53  1096.93     0  03:05       0.466        15.2       0.151
  WS02003066           JUNCTION      0.00   798.66     0  03:05           0        8.41       0.054
  WS02003059           JUNCTION      0.00   301.57     0  03:11           0        6.32       0.496
  WS02003067           JUNCTION      0.00   798.17     0  03:05           0        8.42       0.114
  WS02004401           JUNCTION      0.00   801.77     0  03:03           0        8.66       0.253
  WS02004402           JUNCTION      0.00   801.82     0  03:03           0        8.63       0.238
  WS02004403           JUNCTION      0.00   801.87     0  03:03           0        8.61       0.216
  WS02004404           JUNCTION      0.16   802.07     0  03:03     0.00457         8.6       0.163
  WS02004406           JUNCTION      0.00   802.13     0  03:03           0        8.57       0.396
  WS02004409           JUNCTION      0.00   801.93     0  03:03           0        8.52       0.199
  WS02004410           JUNCTION      0.00   800.23     0  03:04           0        8.51       0.223
  WS02004411           JUNCTION      0.00   799.08     0  03:04           0        8.49       0.229
  WS02004412           JUNCTION      0.00   798.41     0  03:04           0        8.47       0.246
  WS02004413           JUNCTION      0.00   798.13     0  03:04           0        8.45       0.363
  WS02004405           JUNCTION      0.04   802.12     0  03:03     0.00107        8.59       0.243
  WS02006109           JUNCTION      1.23   786.04     0  03:02      0.0347        8.71       0.255
  WS02006110           JUNCTION      0.00   786.04     0  03:02           0        8.69       0.233
  WS02006111           JUNCTION      0.00   783.34     0  03:02           0        8.66       0.053
  WS02006112           JUNCTION     26.73   801.38     0  03:03      0.0709        8.73       0.340
  WS02006113           JUNCTION      0.00   786.06     0  03:02           0        8.67       0.115
  WS02006115           JUNCTION      0.00   801.39     0  03:03           0         8.7       0.238
  WS02006116           JUNCTION      0.00   801.59     0  03:03           0        8.68       0.226
  WS02006230           JUNCTION     10.28   353.76     0  03:30        0.29        6.62       0.201
  WS02006231           JUNCTION      0.00   342.15     0  03:30           0        6.34       0.189
  WS02006232           JUNCTION      0.00   341.99     0  03:30           0        6.36       0.260
  WS02006234           JUNCTION      0.00   341.16     0  03:30           0        6.37       0.136
  WS02006235           JUNCTION      0.00   340.75     0  03:30           0        6.41       0.168
  WS02006238           JUNCTION      0.00   249.13     0  03:20           0         4.3       0.188
  WS02006240           JUNCTION      0.00   246.90     0  03:20           0         4.3       0.286
  WS02006242           JUNCTION      0.00   246.50     0  03:19           0         4.3       0.342
  WS02006243           JUNCTION      0.00   243.47     0  03:20           0        4.31       0.201
  WS02006245           JUNCTION      0.00   241.52     0  03:20           0        4.31       0.183
  WS02006247           JUNCTION      0.00   239.50     0  03:20           0        4.32       0.160
  WS02006248           JUNCTION      0.00   240.05     0  02:13           0        4.32       0.105
  WS02006249           JUNCTION      0.00   333.77     0  03:02           0        4.56       0.216
  WS02006239           JUNCTION      0.00   248.25     0  03:19           0         4.3       0.278
  WS02006251           JUNCTION      0.08   334.20     0  03:01     0.00217        4.57       0.193
  WS02006252           JUNCTION      0.00   200.00     0  02:06           0        4.16       0.010
  WS02006253           JUNCTION      3.67   134.78     0  03:01     0.00915       0.412       0.918
  WS02006256           JUNCTION      0.00   599.96     0  03:50           0        6.87       0.043
  WS02004138           JUNCTION      0.00   285.00     0  00:20           0        6.18       0.049
  WS02004407           JUNCTION      0.00   802.14     0  03:03           0        8.53       0.090
  WS02006228           JUNCTION      0.00   784.83     0  03:02           0        8.69       0.179
  WS02006229           JUNCTION      0.00   784.97     0  03:02           0        8.71       0.138
  WS02006280           JUNCTION      0.00   611.95     0  03:02           0         2.1       0.003
  WS02006284           JUNCTION      0.10   611.06     0  03:02      0.0027         2.1       0.059
  WS02006287           JUNCTION      0.00   609.83     0  03:02           0         2.1       0.034
  WSF200               JUNCTION      0.00   798.82     0  03:05           0         8.4       0.053
  HS02004901           JUNCTION     32.58    32.58     0  03:01      0.0853      0.0856       2.107
  HS02004881           JUNCTION     13.69   131.68     0  03:01      0.0372       0.403       0.076
  HS02004876           JUNCTION     24.31   119.37     0  03:01      0.0714       0.367       0.153
  HS02004870           JUNCTION     25.15    96.63     0  03:01      0.0703       0.295       0.038
  HS02004862           JUNCTION     23.13    73.48     0  03:01      0.0763       0.225       0.080
  HS02004856           JUNCTION     18.81    51.88     0  03:01      0.0529        0.15       0.973
  HS02004852           JUNCTION      0.00    35.11     0  03:01           0      0.0975       0.061
  HS02004848           JUNCTION     51.30    51.30     0  03:01        0.17        0.17       0.030
  HS02004842           JUNCTION      0.00    15.11     0  03:01           0      0.0851      18.025
  HS02004837           JUNCTION     48.64    62.30     0  03:01       0.302       0.374       0.218
  HS02004830           JUNCTION      0.15    61.39     0  03:01     0.00423       0.364       0.341
  HS02004824           JUNCTION     61.99   121.76     0  03:01       0.222       0.584       0.093
  HS02004817           JUNCTION      0.60   117.99     0  03:02      0.0169       0.601       2.855
  HS02004807           JUNCTION     46.68   158.05     0  03:01       0.129       0.713       0.602
  HS02004802           JUNCTION      0.00   156.92     0  03:03           0       0.709       0.571
  HS02004799           JUNCTION     37.02   389.10     0  03:01       0.105        1.19       0.207
  HS02004792           JUNCTION    159.34   356.45     0  03:01       0.445        1.08       0.038
  HS02004788           JUNCTION     52.70   202.58     0  03:02       0.193       0.638       0.062
  HS02004785           JUNCTION      0.15   157.28     0  03:01     0.00423       0.447       0.112
  HS02004777           JUNCTION      0.03   160.02     0  03:01    0.000846       0.447       1.175
  HS02004770           JUNCTION    133.95   163.77     0  03:01       0.365       0.449       0.699
  HS02004480           JUNCTION      0.00   456.69     0  03:01           0         1.4       0.084
  HS02004479           JUNCTION      0.00    72.19     0  03:02           0       0.228       0.322
  HS02004478           JUNCTION      0.00   609.30     0  03:02           0         2.1       0.018
  YS02001745           JUNCTION    387.96   447.05     0  02:45        2.65        2.65       0.424
  YS02001748           JUNCTION      0.04   651.99     0  02:46     0.00127        2.64       0.868
  YS02001751           JUNCTION      0.01   398.65     0  03:01     0.00031        2.61       0.902
  YS02001754           JUNCTION      0.26   399.04     0  03:01     0.00733         2.6       0.959
  YS02001762           JUNCTION      0.00   379.85     0  02:54           0        1.77       1.215
  YS02001765           JUNCTION      0.00   379.92     0  02:54           0        1.77       1.399
  YS02001767           JUNCTION      0.54   379.98     0  02:54      0.0151        1.79       2.041
  YS02001770           JUNCTION    496.57   496.57     0  03:01        2.97        3.11       1.030
  YS02001774           JUNCTION      0.00   390.27     0  03:30           0        1.43       1.785
  YS02001779           JUNCTION      0.01   390.24     0  03:30    0.000141         1.4       1.113
  YS02001882           JUNCTION      0.00    24.19     0  02:49           0      0.0164      16.681
  YS02001884           JUNCTION      0.00    28.11     0  02:47           0      0.0512      14.101
  YS02001759           JUNCTION    483.56   765.44     0  02:55        2.74        4.34       0.532
  YS02001887           JUNCTION    623.03   623.28     0  03:01        3.16        3.19       0.275
  YS02001890           JUNCTION      0.00   623.12     0  03:01           0        3.14       0.302
  YS02001898           JUNCTION      0.00   517.16     0  03:02           0        3.09       0.113
  YS02001901           JUNCTION      0.00   517.20     0  03:08           0        3.08       0.230
  YS02001904           JUNCTION      0.00   517.19     0  03:08           0        3.08       0.210
  YS02001907           JUNCTION      0.00  1116.59     0  02:55           0        6.88       0.363
  YS02001910           JUNCTION      0.00   621.48     0  02:55           0        3.81       0.316
  YS02001915           JUNCTION    347.37   621.31     0  02:55        2.22        3.86       0.165
  YS02001918           JUNCTION      0.00   346.83     0  02:55           0        1.67       0.122
  YS02001619           JUNCTION    337.96   337.96     0  03:01        2.21        2.21       0.553
  YS02001629           JUNCTION      0.00   222.69     0  02:49           0        1.57       1.860
  YS02001641           JUNCTION      0.00   467.00     0  02:49           0        4.09       0.519
  YS02001644           JUNCTION    368.39  1123.83     0  03:25        2.55        9.05       0.290
  YS02001652           JUNCTION      0.00   484.10     0  03:01           0         2.3       1.012
  YS02001655           JUNCTION      0.15   484.04     0  03:01     0.00434        2.33       1.098
  YS02001920           JUNCTION      2.87   346.71     0  02:55      0.0809        1.65       0.190
  YS02001923           JUNCTION      0.04   299.03     0  02:54     0.00106        1.56       0.044
  YS02001926           JUNCTION      0.05   285.05     0  02:53     0.00147        1.54       0.226
  YS02001929           JUNCTION    163.23   176.68     0  02:53        1.53        1.53       0.039
  YS02001658           JUNCTION      0.00   616.97     0  02:42           0        2.35       1.009
  YS02001661           JUNCTION      0.00   742.38     0  03:03           0        3.07      -0.028
  YS02001664           JUNCTION    446.68   446.68     0  03:01        2.35        3.07       0.217
  YS02001622           JUNCTION      0.00   338.17     0  03:01           0        2.19       1.466
  YS02001633           JUNCTION    373.80   467.23     0  02:49        2.63        4.15       0.783
  YS02001649           JUNCTION      0.00   990.33     0  02:50           0        4.99       0.753
  YS02001757           JUNCTION      0.00  1933.36     0  02:52           0        9.24       1.010
  YS02001895           JUNCTION      0.00   517.15     0  03:02           0        3.09       0.164
  YS02001625           JUNCTION      0.00   338.09     0  03:01           0        2.16       1.809
  YS02163301           JUNCTION      0.00   222.66     0  02:49           0        1.54       1.578
  YS02163601           JUNCTION      0.11   467.18     0  02:49      0.0031        4.11       0.738
  YS02164001           JUNCTION      0.00   467.04     0  02:49           0        4.09       0.495
  YS02001647           JUNCTION      0.00   710.67     0  02:50           0        3.99       0.710
  YSB1154              JUNCTION     43.21    43.21     0  03:01       0.127       0.128       1.144
  YSB6556              JUNCTION      0.00    41.77     0  03:01           0       0.129       0.980
  YSB1174              JUNCTION     35.94    35.94     0  03:01      0.0924      0.0931       1.403
  YSB1171              JUNCTION      0.00    73.33     0  03:01           0       0.227       2.865
  YS02006553           JUNCTION      0.00   671.96     0  03:32           0        6.15       0.257
  YS02006561           JUNCTION      0.00   969.09     0  03:00           0           9       0.008
  YS02006556           JUNCTION      0.00   671.63     0  03:32           0        6.16       0.187
  YS02006558           JUNCTION    532.26   969.50     0  03:00         2.9        9.03       0.061
  YS02001783           JUNCTION      0.00   969.26     0  03:00           0           9       0.029
  YS02001784           JUNCTION      1.06   970.29     0  03:00      0.0299        9.02       0.044
  YS02001786           JUNCTION      0.06   970.25     0  03:00     0.00159        9.02       0.040
  YS02001788           JUNCTION      0.07   970.44     0  03:00       0.002        9.02       0.023
  YS02001790           JUNCTION      0.15   970.56     0  03:00     0.00437        9.02       0.029
  YS02001791           JUNCTION      0.00   970.50     0  03:00           0        9.02       0.013
  YS02001793           JUNCTION      0.00   970.60     0  03:00           0        9.02       0.003
  WS02004139           JUNCTION      0.32   285.35     0  00:20     0.00905        6.19       0.403
  WSC                  OUTFALL       0.00  1099.07     0  03:08           0        15.1       0.000
  3                    OUTFALL       0.00   568.10     0  03:00           0        4.73       0.000
  4                    OUTFALL       0.00   176.77     0  03:02           0       0.231       0.000
  5                    OUTFALL       0.00     0.00     0  00:00           0           0       0.000 ltr
  JK-storage           STORAGE       0.00   970.64     0  03:00           0        9.17      -5.835
  CC-storage           STORAGE       0.00  1933.21     0  02:52           0        7.96       0.817
  XR-storage           STORAGE     849.17   849.17     0  03:01        10.2        10.8       0.000
  
  
  **********************
  Node Surcharge Summary
  **********************
  
  Surcharging occurs when water rises above the top of the highest conduit.
  ---------------------------------------------------------------------
                                               Max. Height   Min. Depth
                                   Hours       Above Crown    Below Rim
  Node                 Type      Surcharged         Meters       Meters
  ---------------------------------------------------------------------
  WS02004401           JUNCTION        0.30          0.105        1.555
  WS02004402           JUNCTION        0.36          0.108        1.632
  WS02004403           JUNCTION        0.37          0.097        1.933
  WS02004404           JUNCTION        0.76          0.150        2.630
  WS02004406           JUNCTION        0.60          0.101        2.349
  WS02004405           JUNCTION        0.67          0.132        2.668
  WS02006109           JUNCTION        1.63          0.438        1.382
  WS02006110           JUNCTION        1.07          0.196        1.654
  WS02006112           JUNCTION        1.20          0.382        1.298
  WS02006115           JUNCTION        0.11          0.047        2.203
  WS02006116           JUNCTION        0.14          0.054        2.236
  WS02006230           JUNCTION        0.69          0.304        1.266
  WS02006231           JUNCTION        0.87          0.305        1.225
  WS02006232           JUNCTION        1.42          0.408        1.072
  WS02006234           JUNCTION        1.02          0.278        0.962
  WS02006235           JUNCTION        1.17          0.292        0.998
  WS02006238           JUNCTION        1.24          0.304        1.126
  WS02006240           JUNCTION        0.87          0.176        1.214
  WS02006242           JUNCTION        1.00          0.199        0.621
  WS02006243           JUNCTION        0.31          0.074        0.696
  WS02006245           JUNCTION        0.10          0.020        0.830
  WS02006247           JUNCTION        0.08          0.013        0.747
  WS02006239           JUNCTION        0.99          0.228        1.062
  WS02006228           JUNCTION        1.60          0.546        1.654
  YS02001748           JUNCTION        5.03          1.190        0.000
  YS02001751           JUNCTION        5.13          1.200        0.000
  YS02001754           JUNCTION        5.29          1.110        0.040
  YS02001762           JUNCTION        5.51          1.088        0.062
  YS02001765           JUNCTION        5.49          1.036        0.064
  YS02001767           JUNCTION        5.47          0.970        0.060
  YS02001770           JUNCTION        5.45          0.920        0.000
  YS02001774           JUNCTION        5.50          1.023        0.027
  YS02001779           JUNCTION        5.28          0.680        0.000
  YS02001882           JUNCTION        0.99          0.700        0.130
  YS02001884           JUNCTION        1.03          0.721        0.149
  YS02001759           JUNCTION        5.54          1.113        0.097
  YS02001887           JUNCTION        1.12          0.786        0.164
  YS02001890           JUNCTION        1.15          0.760        0.000
  YS02001898           JUNCTION        0.95          0.618        0.122
  YS02001901           JUNCTION        1.08          0.740        0.130
  YS02001904           JUNCTION        1.06          0.664        0.186
  YS02001907           JUNCTION        1.66          0.950        0.000
  YS02001910           JUNCTION        1.20          0.888        0.212
  YS02001915           JUNCTION        0.98          0.841        0.159
  YS02001918           JUNCTION        0.75          0.808        0.002
  YS02001619           JUNCTION        5.15          0.610        0.000
  YS02001629           JUNCTION        5.15          0.470        0.000
  YS02001641           JUNCTION        5.50          0.945        0.155
  YS02001644           JUNCTION        5.50          0.920        0.000
  YS02001652           JUNCTION        5.29          1.130        0.000
  YS02001655           JUNCTION        5.15          1.200        0.000
  YS02001920           JUNCTION        0.79          0.558        0.582
  YS02001923           JUNCTION        0.01          0.114        0.706
  YS02001926           JUNCTION        0.01          0.900        0.000
  YS02001658           JUNCTION        5.05          1.300        0.000
  YS02001661           JUNCTION        0.26          1.390        0.000
  YS02001622           JUNCTION        5.16          0.620        0.000
  YS02001633           JUNCTION        5.48          0.945        0.115
  YS02001649           JUNCTION        5.52          1.050        0.000
  YS02001757           JUNCTION        5.62          1.210        0.000
  YS02001895           JUNCTION        0.96          0.619        0.131
  YS02001625           JUNCTION        5.34          0.780        0.000
  YS02163301           JUNCTION        5.46          0.907        0.123
  YS02163601           JUNCTION        5.52          1.010        0.070
  YS02164001           JUNCTION        5.49          0.943        0.157
  YS02001647           JUNCTION        5.30          0.807        0.093
  YS02006553           JUNCTION        1.72          0.970        0.220
  YS02006561           JUNCTION        0.87          0.846        0.304
  YS02006556           JUNCTION        1.41          0.954        0.396
  YS02006558           JUNCTION        1.38          0.965        0.435
  YS02001783           JUNCTION        1.37          1.064        0.536
  YS02001784           JUNCTION        1.42          1.016        0.474
  YS02001786           JUNCTION        1.33          1.313        0.117
  YS02001788           JUNCTION        1.31          1.480        0.000
  YS02001790           JUNCTION        2.58          1.157        0.000
  YS02001791           JUNCTION        2.74          1.150        0.770
  YS02001793           JUNCTION        2.81          1.046        1.554
  
  
  *********************
  Node Flooding Summary
  *********************
  
  Flooding refers to all water that overflows a node, whether it ponds or not.
  --------------------------------------------------------------------------
                                                             Total   Maximum
                                 Maximum   Time of Max       Flood    Ponded
                        Hours       Rate    Occurrence      Volume     Depth
  Node                 Flooded       LPS   days hr:min    10^6 ltr    Meters
  --------------------------------------------------------------------------
  YS02001748              0.01    402.76      0  02:46       0.001     0.000
  YS02001751              0.01     41.13      0  02:46       0.000     0.000
  YS02001770              0.01      9.82      0  02:46       0.000     0.000
  YS02001779              2.69    390.21      0  03:30       1.383     0.000
  YS02001890              0.24    107.35      0  03:01       0.038     0.000
  YS02001907              0.62    607.93      0  02:59       0.714     0.000
  YS02001619              0.01     19.41      0  02:44       0.000     0.000
  YS02001629              0.01     35.64      0  02:43       0.000     0.000
  YS02001644              4.91   1123.82      0  03:25       7.452     0.000
  YS02001652              0.01     20.24      0  02:58       0.000     0.000
  YS02001655              0.01    116.52      0  02:41       0.000     0.000
  YS02001926              0.01    117.77      0  02:53       0.000     0.000
  YS02001658              0.01    174.83      0  02:42       0.000     0.000
  YS02001661              0.01    168.18      0  02:58       0.001     0.000
  YS02001622              0.01     33.86      0  02:42       0.000     0.000
  YS02001649              0.10     47.35      0  02:58       0.005     0.000
  YS02001757              0.01     11.60      0  02:47       0.000     0.000
  YS02001625              1.13    317.19      0  03:01       0.556     0.000
  YS02001788              0.01    135.63      0  02:50       0.000     0.000
  YS02001790              0.01    197.66      0  02:49       0.000     0.000
  JK-storage              2.13    722.39      0  04:00       2.869     0.000
  XR-storage              5.27    564.15      0  03:01       3.696     0.000
  
  
  **********************
  Storage Volume Summary
  **********************
  
  --------------------------------------------------------------------------------------------------
                         Average     Avg  Evap Exfil       Maximum     Max    Time of Max    Maximum
                          Volume    Pcnt  Pcnt  Pcnt        Volume    Pcnt     Occurrence    Outflow
  Storage Unit           1000 m3    Full  Loss  Loss       1000 m3    Full    days hr:min        LPS
  --------------------------------------------------------------------------------------------------
  JK-storage               0.153      52     0     0         0.291     100       0  02:50     599.96
  CC-storage               2.995      19     0     0         3.855      25       0  03:30     200.00
  XR-storage               0.891      96     0     0         0.926     100       0  02:31     285.00
  
  
  ***********************
  Outfall Loading Summary
  ***********************
  
  -----------------------------------------------------------
                         Flow       Avg       Max       Total
                         Freq      Flow      Flow      Volume
  Outfall Node           Pcnt       LPS       LPS    10^6 ltr
  -----------------------------------------------------------
  WSC                   99.99    622.98   1099.07      15.105
  3                     91.61    240.75    568.10       4.732
  4                     18.45     62.95    176.77       0.231
  5                      0.00      0.00      0.00       0.000
  -----------------------------------------------------------
  System                52.51    926.69   1740.11      20.068
  
  
  ********************
  Link Flow Summary
  ********************
  
  -----------------------------------------------------------------------------
                                 Maximum  Time of Max   Maximum    Max/    Max/
                                  |Flow|   Occurrence   |Veloc|    Full    Full
  Link                 Type          LPS  days hr:min     m/sec    Flow   Depth
  -----------------------------------------------------------------------------
  WS02003066WSF200     CONDUIT    798.82     0  03:05      2.92    0.13    0.29
  WS02006287WS02006284 CONDUIT    610.96     0  03:02      2.31    0.28    0.37
  WS02006284WS02006280 CONDUIT    611.95     0  03:02      2.55    0.26    0.35
  WS02006280WS02006229 CONDUIT    612.07     0  03:02      4.12    0.13    0.24
  WS02006229WS02006228 CONDUIT    784.83     0  03:02      1.56    2.60    1.00
  WS02006256WS02006235 CONDUIT    166.25     0  00:01      2.58    1.76    1.00
  WS02006253WS02006251 CONDUIT    134.12     0  03:01      0.45    0.40    0.90
  WS02006252WS02006251 CONDUIT    200.33     0  02:06      1.97    0.74    0.76
  WS02006251WS02006249 CONDUIT    333.77     0  03:02      0.97    0.96    0.90
  WS02006249WS02006248 CONDUIT    240.05     0  02:13      1.05    1.31    0.90
  WS02006248WS02006247 CONDUIT    239.50     0  03:20      1.02    0.52    0.96
  WS02006247WS02006245 CONDUIT    241.52     0  03:20      0.99    1.92    1.00
  WS02006245WS02006243 CONDUIT    243.47     0  03:20      1.04    0.72    1.00
  WS02006243WS02006242 CONDUIT    246.50     0  03:19      0.85    0.53    1.00
  WS02006242WS02006240 CONDUIT    246.90     0  03:20      0.77    0.98    1.00
  WS02006240WS02006239 CONDUIT    248.25     0  03:19      0.84    0.78    1.00
  WS02006239WS02006238 CONDUIT    249.13     0  03:20      0.77    0.80    1.00
  WS02006238WS02006235 CONDUIT    252.15     0  04:00      1.25    0.56    1.00
  WS02006235WS02006234 CONDUIT    341.16     0  03:30      0.95    3.60    1.00
  WS02006234WS02006232 CONDUIT    341.99     0  03:30      1.13    0.69    1.00
  WS02006232WS02006231 CONDUIT    342.15     0  03:30      0.95    0.72    1.00
  WS02006231WS02006230 CONDUIT    343.48     0  03:30      1.30    5.21    1.00
  WS02006230WS02006229 CONDUIT    355.72     0  03:30      0.92    7.92    1.00
  WS02006228WS02006109 CONDUIT    784.81     0  03:02      1.56    3.43    1.00
  WS02006116WS02004401 CONDUIT    801.77     0  03:03      1.02    1.11    1.00
  WS02006115WS02006116 CONDUIT    801.59     0  03:03      1.02    1.03    1.00
  WS02006113WS02006111 CONDUIT    783.34     0  03:02      2.59    0.94    0.75
  WS02006112WS02006115 CONDUIT    801.39     0  03:03      1.02    0.47    1.00
  WS02006111WS02006112 CONDUIT    783.29     0  03:03      1.72    0.37    0.87
  WS02006110WS02006113 CONDUIT    786.06     0  03:02      1.68    0.72    0.88
  WS02006109WS02006110 CONDUIT    786.04     0  03:02      1.56    1.51    1.00
  WS02004411WS02004412 CONDUIT    798.41     0  03:04      1.14    1.13    0.84
  WS02004401WS02004402 CONDUIT    801.82     0  03:03      1.02    0.96    1.00
  WS02004413WS02003067 CONDUIT    798.17     0  03:05      1.39    0.34    0.69
  WS02004412WS02004413 CONDUIT    798.13     0  03:04      1.07    0.53    0.90
  WS02004410WS02004411 CONDUIT    799.08     0  03:04      1.13    1.09    0.84
  WS02004409WS02004410 CONDUIT    800.23     0  03:04      1.13    1.03    0.85
  WS02004407WS02004409 CONDUIT    801.93     0  03:03      1.61    0.28    0.61
  WS02004406WS02004407 CONDUIT    802.14     0  03:03      1.41    0.36    0.68
  WS02004405WS02004406 CONDUIT    802.13     0  03:03      1.02    1.58    1.00
  WS02004404WS02004405 CONDUIT    802.08     0  03:03      1.02    7.86    1.00
  WS02004403WS02004404 CONDUIT    801.91     0  03:03      1.02    0.58    1.00
  WS02004402WS02004403 CONDUIT    801.87     0  03:03      1.02    1.15    1.00
  WS02004139WS02001211 CONDUIT    286.54     0  03:10      0.69    0.36    0.56
  WS02004138WS02004139 CONDUIT    285.03     0  00:20      2.94    0.06    0.41
  WS02003067WS02003066 CONDUIT    798.66     0  03:05      1.51    0.26    0.48
  WS02001213WS02003059 CONDUIT    301.57     0  03:11      0.65    0.50    0.79
  WS02001212WS02001213 CONDUIT    297.83     0  03:11      1.19    0.46    0.47
  WS02001211WS02001212 CONDUIT    295.73     0  03:10      0.67    0.23    0.63
  WS02003072WS02003073 CONDUIT   1097.15     0  03:07      1.83    2.37    0.52
  WS02003069WS02003072 CONDUIT   1097.08     0  03:06      1.71    0.53    0.55
  WS02003060WS02003069 CONDUIT   1096.98     0  03:06      1.94    0.43    0.50
  WS02003059WS02003060 CONDUIT    307.22     0  03:11      0.82    0.20    0.70
  HS02004901HS02004770 CONDUIT     32.24     0  03:01      0.09    0.12    0.50
  HS02004876HS02004881 CONDUIT    119.32     0  03:01      1.17    1.27    0.15
  HS02004870HS02004876 CONDUIT     96.13     0  03:01      0.79    0.06    0.17
  HS02004842HS02004848 CONDUIT     15.11     0  03:01      0.07    0.01    0.33
  HS02004837HS02004842 CONDUIT     16.10     0  03:03      0.41    0.01    0.34
  HS02004830HS02004837 CONDUIT     61.24     0  03:01      0.66    0.06    0.13
  HS02004824HS02004830 CONDUIT     60.79     0  03:01      0.63    0.08    0.15
  HS02004817HS02004824 CONDUIT    117.39     0  03:02      0.30    0.05    0.56
  HS02004770HS02004777 CONDUIT    159.99     0  03:01      0.45    0.29    0.51
  HS02004799HS02004480 CONDUIT    387.38     0  03:01      1.00    0.49    0.56
  HS02004792HS02004799 CONDUIT    353.06     0  03:01      1.12    0.22    0.45
  HS02004788HS02004792 CONDUIT    202.14     0  03:02      1.22    0.13    0.24
  HS02004785HS02004788 CONDUIT    156.68     0  03:02      0.85    1.18    0.26
  HS02004777HS02004785 CONDUIT    157.13     0  03:01      0.53    0.19    0.42
  HS02004480HS02004478 CONDUIT    456.75     0  03:01      1.47    1.92    0.44
  HS02004479HS02004480 CONDUIT     74.07     0  03:02      0.22    0.07    0.53
  HS02004862HS02004870 CONDUIT     73.11     0  03:01      0.77    0.08    0.14
  HS02004848HS02004852 CONDUIT     35.11     0  03:01      0.52    0.04    0.10
  HS02004856HS02004862 CONDUIT     51.23     0  03:01      0.58    0.05    0.13
  HS02004852HS02004856 CONDUIT     35.02     0  03:02      0.32    0.04    0.16
  HS02004802HS02004478 CONDUIT    160.68     0  03:04      0.54    0.14    0.45
  HS02004478WS02006287 CONDUIT    609.83     0  03:02      2.03    0.17    0.33
  HS02004817HS02004807 CONDUIT    120.81     0  03:04      0.24    0.07    0.73
  HS02004807HS02004802 CONDUIT    156.92     0  03:03      0.45    0.30    0.51
  YS02001759YS02001757 CONDUIT    765.48     0  02:55      0.97    0.54    1.00
  YS02001762YS02001759 CONDUIT    379.62     0  02:54      0.48    0.44    1.00
  YS02001765YS02001762 CONDUIT    379.85     0  02:54      0.48    0.36    1.00
  YS02001770YS02001767 CONDUIT    379.45     0  02:54      0.48    1.50    1.00
  YS02001774YS02001770 CONDUIT    390.27     0  03:30      0.50    0.25    1.00
  YS02001779YS02001774 CONDUIT    390.24     0  03:30      0.50    0.20    1.00
  YS02001649YS02001757 CONDUIT    990.46     0  02:50      1.26    0.60    1.00
  YS02001767YS02001765 CONDUIT    379.92     0  02:54      0.48    0.48    1.00
  YS02006561YS02001783 CONDUIT    969.26     0  03:00      2.20    0.50    1.00
  YS02001783YS02001784 CONDUIT    969.23     0  03:00      1.93    1.34    1.00
  YS02001784YS02001785 CONDUIT    970.20     0  03:00      1.95    2.26    1.00
  YS02001788YS02001790 CONDUIT    970.40     0  03:00      2.46    0.72    1.00
  YS02001790YS02001791 CONDUIT    970.50     0  03:00      3.03    1.06    1.00
  YS02001791YS02001793 CONDUIT    970.60     0  03:00      5.91    0.42    1.00
  YS02001910YS02001907 CONDUIT    621.41     0  02:55      0.79    0.35    1.00
  YS02001786YS02001788 CONDUIT    970.37     0  03:00      2.33    1.87    1.00
  YS02001915YS02001910 CONDUIT    621.48     0  02:55      0.79    0.31    1.00
  YS02001918YS02001915 CONDUIT    347.51     0  02:55      0.44    0.19    1.00
  YS02001923YS02001920 CONDUIT    343.84     0  02:55      0.71    0.15    1.00
  YS02001926YS02001923 CONDUIT    298.99     0  02:54      0.82    0.43    1.00
  YS02001929YS02001926 CONDUIT    200.91     0  02:54      0.87    0.10    0.94
  YS02001920YS02001918 CONDUIT    346.83     0  02:55      0.70    0.34    1.00
  YS02001629YS02163301 CONDUIT    222.66     0  02:49      0.28    0.27    1.00
  YS02001619YS02001622 CONDUIT    338.17     0  03:01      0.60    0.50    1.00
  YS02001622YS02001625 CONDUIT    338.09     0  03:01      0.43    0.18    1.00
  YS02001625YS02001629 CONDUIT    222.69     0  02:49      0.28    0.11    1.00
  YS02163301YS02001633 CONDUIT    222.29     0  02:49      0.28    0.21    1.00
  YS02163601YS02164001 CONDUIT    467.04     0  02:49      0.59    0.41    1.00
  YS02164001YS02001641 CONDUIT    467.00     0  02:49      0.59    0.64    1.00
  YS02001641YS02001644 CONDUIT    466.96     0  02:49      0.59    1.51    1.00
  YS02001647YS02001649 CONDUIT    710.60     0  02:50      0.90    0.38    1.00
  YS02006553YS02006556 CONDUIT    671.63     0  03:32      0.86    0.57    1.00
  YS02006556YS02006558 CONDUIT    671.95     0  03:32      0.86    0.53    1.00
  YSB6556YSB1171       CONDUIT     41.33     0  03:02      0.13    0.04    0.80
  YS02001907YS02006553 CONDUIT    671.96     0  03:32      0.75    0.79    1.00
  YS02006558YS02006561 CONDUIT    969.09     0  03:00      3.58    2.14    1.00
  YS02001633YS02163601 CONDUIT    467.07     0  02:49      0.59    0.49    1.00
  YS02001644YS02001647 CONDUIT    710.67     0  02:50      0.90    0.42    1.00
  YS02001745YS02001748 CONDUIT    651.95     0  02:46      1.48    0.25    0.94
  YS02001748YS02001751 CONDUIT    398.64     0  03:01      1.03    0.20    1.00
  YS02001751YS02001754 CONDUIT    398.78     0  03:01      0.84    0.19    1.00
  YS02001754YS02001757 CONDUIT    398.88     0  03:01      0.51    0.16    1.00
  YS02001882YS02001884 CONDUIT     24.19     0  02:49      0.08    0.03    1.00
  YS02001884YS02001887 CONDUIT     28.11     0  02:47      0.05    0.04    1.00
  YS02001890YS02001895 CONDUIT    517.15     0  03:02      0.66    0.24    1.00
  YS02001895YS02001898 CONDUIT    517.16     0  03:02      0.66    0.90    1.00
  YS02001898YS02001901 CONDUIT    517.20     0  03:08      0.66    0.33    1.00
  YS02001901YS02001904 CONDUIT    517.19     0  03:08      0.66    0.80    1.00
  YS02001904YS02001907 CONDUIT    517.19     0  03:08      0.66    0.18    1.00
  YS02001887YS02001890 CONDUIT    623.12     0  03:01      0.79    1.07    1.00
  YS02001652YS02001649 CONDUIT    483.99     0  03:01      0.62    0.24    1.00
  YS02001655YS02001652 CONDUIT    484.10     0  03:01      0.89    0.24    1.00
  YS02001658YS02001655 CONDUIT    483.88     0  03:01      1.18    0.21    1.00
  YS02001661YS02001658 CONDUIT    616.97     0  02:42      1.56    0.24    1.00
  YS02001664YS02001661 CONDUIT    742.38     0  03:03      1.59    0.23    0.73
  YSB1154YSB6556       CONDUIT     41.77     0  03:01      0.19    0.08    0.69
  YSB1174YSB1171       CONDUIT     34.49     0  03:01      0.10    0.05    0.81
  YSB1171HS02004479    CONDUIT     72.19     0  03:02      0.54    0.05    0.65
  HS02004881HS02006253 CONDUIT    131.62     0  03:01      1.58    0.03    0.26
  YS02001793JiankangQianchi CONDUIT    970.64     0  03:00     14.63    0.08    1.00
  YS02001757CaochengTiaoxuchi CONDUIT   1933.21     0  02:52      2.71    0.85    1.00
  WSF200WS02003060     CONDUIT    799.12     0  03:05      1.97    0.18    0.40
  1                    CONDUIT   1099.07     0  03:08      3.41    0.38    0.43
  2                    CONDUIT    176.77     0  03:02      5.66    0.42    0.45
  3                    CONDUIT    568.10     0  03:00      9.98    0.91    0.75
  4                    CONDUIT      0.00     0  00:00      0.00    0.00    0.00
  CC-Pump-1            PUMP         0.00     0  00:00              0.00
  CC-Pump-2            PUMP       200.00     0  02:06              1.00
  JK-Pump-1            PUMP       300.00     0  05:40              1.00
  JK-Pump-2            PUMP       300.00     0  00:00              1.00
  XR-Pump-1            PUMP        95.00     0  00:20              1.00
  XR-Pump-2            PUMP         0.00     0  00:00              0.00
  XR-Pump-3            PUMP        95.00     0  00:00              1.00
  XR-Pump-4            PUMP        95.00     0  00:00              1.00
  
  
  ***************************
  Flow Classification Summary
  ***************************
  
  -------------------------------------------------------------------------------------
                      Adjusted    ---------- Fraction of Time in Flow Class ---------- 
                       /Actual         Up    Down  Sub   Sup   Up    Down  Norm  Inlet 
  Conduit               Length    Dry  Dry   Dry   Crit  Crit  Crit  Crit  Ltd   Ctrl  
  -------------------------------------------------------------------------------------
  WS02003066WSF200        1.00   0.06  0.00  0.00  0.00  0.94  0.00  0.00  0.61  0.00
  WS02006287WS02006284    1.00   0.04  0.01  0.00  0.57  0.38  0.00  0.00  0.67  0.00
  WS02006284WS02006280    1.00   0.04  0.00  0.00  0.00  0.00  0.00  0.96  0.00  0.00
  WS02006280WS02006229    1.00   0.04  0.00  0.00  0.00  0.00  0.00  0.96  0.00  0.00
  WS02006229WS02006228    1.00   0.00  0.00  0.00  0.99  0.00  0.00  0.01  0.00  0.00
  WS02006256WS02006235    1.00   0.00  0.00  0.00  1.00  0.00  0.00  0.00  0.00  0.00
  WS02006253WS02006251    1.00   0.03  0.01  0.00  0.96  0.00  0.00  0.00  0.00  0.00
  WS02006252WS02006251    1.00   0.07  0.00  0.00  0.00  0.00  0.93  0.00  0.00  0.00
  WS02006251WS02006249    1.00   0.00  0.00  0.00  1.00  0.00  0.00  0.00  0.24  0.00
  WS02006249WS02006248    1.00   0.00  0.02  0.00  0.93  0.00  0.05  0.00  0.00  0.00
  WS02006248WS02006247    1.00   0.02  0.00  0.00  0.98  0.00  0.00  0.00  0.12  0.00
  WS02006247WS02006245    1.00   0.02  0.00  0.00  0.98  0.00  0.00  0.00  0.00  0.00
  WS02006245WS02006243    1.00   0.01  0.00  0.00  0.95  0.00  0.00  0.03  0.01  0.00
  WS02006243WS02006242    1.00   0.01  0.00  0.00  0.99  0.00  0.00  0.00  0.22  0.00
  WS02006242WS02006240    1.00   0.00  0.00  0.00  1.00  0.00  0.00  0.00  0.00  0.00
  WS02006240WS02006239    1.00   0.00  0.00  0.00  0.96  0.00  0.00  0.03  0.01  0.00
  WS02006239WS02006238    1.00   0.00  0.00  0.00  1.00  0.00  0.00  0.00  0.02  0.00
  WS02006238WS02006235    1.00   0.00  0.00  0.00  1.00  0.00  0.00  0.00  0.00  0.00
  WS02006235WS02006234    1.00   0.00  0.00  0.00  0.96  0.00  0.04  0.00  0.00  0.00
  WS02006234WS02006232    1.00   0.00  0.00  0.00  1.00  0.00  0.00  0.00  0.07  0.00
  WS02006232WS02006231    1.00   0.00  0.00  0.00  0.99  0.00  0.00  0.00  0.00  0.00
  WS02006231WS02006230    1.00   0.00  0.00  0.00  0.49  0.00  0.50  0.00  0.00  0.00
  WS02006230WS02006229    1.00   0.00  0.00  0.00  0.99  0.00  0.00  0.01  0.01  0.00
  WS02006228WS02006109    1.00   0.00  0.00  0.00  1.00  0.00  0.00  0.00  0.00  0.00
  WS02006116WS02004401    1.00   0.02  0.00  0.00  0.98  0.00  0.00  0.00  0.00  0.00
  WS02006115WS02006116    1.00   0.02  0.00  0.00  0.97  0.00  0.00  0.01  0.00  0.00
  WS02006113WS02006111    1.00   0.02  0.00  0.00  0.03  0.95  0.00  0.00  0.09  0.00
  WS02006112WS02006115    1.00   0.02  0.00  0.00  0.98  0.00  0.00  0.00  0.00  0.00
  WS02006111WS02006112    1.00   0.02  0.00  0.00  0.98  0.00  0.00  0.00  0.89  0.00
  WS02006110WS02006113    1.00   0.01  0.01  0.00  0.98  0.00  0.00  0.00  0.00  0.00
  WS02006109WS02006110    1.00   0.00  0.01  0.00  0.98  0.00  0.01  0.00  0.00  0.00
  WS02004411WS02004412    1.00   0.04  0.00  0.00  0.96  0.00  0.00  0.00  0.00  0.00
  WS02004401WS02004402    1.00   0.02  0.00  0.00  0.98  0.00  0.00  0.00  0.00  0.00
  WS02004413WS02003067    1.00   0.04  0.01  0.00  0.00  0.00  0.95  0.00  0.00  0.00
  WS02004412WS02004413    1.00   0.04  0.00  0.00  0.96  0.00  0.00  0.00  0.03  0.00
  WS02004410WS02004411    1.00   0.04  0.00  0.00  0.96  0.00  0.00  0.00  0.03  0.00
  WS02004409WS02004410    1.00   0.04  0.00  0.00  0.96  0.00  0.00  0.00  0.03  0.00
  WS02004407WS02004409    1.00   0.04  0.00  0.00  0.96  0.00  0.00  0.00  0.89  0.00
  WS02004406WS02004407    1.00   0.00  0.04  0.00  0.96  0.00  0.00  0.00  0.00  0.00
  WS02004405WS02004406    1.00   0.00  0.00  0.00  1.00  0.00  0.00  0.00  0.01  0.00
  WS02004404WS02004405    1.00   0.00  0.00  0.00  1.00  0.00  0.00  0.00  0.00  0.00
  WS02004403WS02004404    1.00   0.00  0.02  0.00  0.98  0.00  0.00  0.00  0.01  0.00
  WS02004402WS02004403    1.00   0.02  0.00  0.00  0.98  0.00  0.00  0.00  0.00  0.00
  WS02004139WS02001211    1.00   0.00  0.00  0.00  1.00  0.00  0.00  0.00  0.00  0.00
  WS02004138WS02004139    1.00   0.00  0.00  0.00  0.99  0.01  0.00  0.00  1.00  0.00
  WS02003067WS02003066    1.00   0.05  0.00  0.00  0.94  0.00  0.00  0.00  0.00  0.00
  WS02001213WS02003059    1.00   0.00  0.00  0.00  0.99  0.00  0.00  0.00  0.00  0.00
  WS02001212WS02001213    1.00   0.00  0.00  0.00  0.90  0.00  0.09  0.00  0.00  0.00
  WS02001211WS02001212    1.00   0.00  0.00  0.00  1.00  0.00  0.00  0.00  0.00  0.00
  WS02003072WS02003073    1.00   0.00  0.00  0.00  0.00  0.00  0.00  1.00  0.00  0.00
  WS02003069WS02003072    1.00   0.00  0.00  0.00  0.99  0.01  0.00  0.00  0.26  0.00
  WS02003060WS02003069    1.00   0.00  0.00  0.00  0.99  0.01  0.00  0.00  0.13  0.00
  WS02003059WS02003060    1.00   0.00  0.00  0.00  1.00  0.00  0.00  0.00  0.01  0.00
  HS02004901HS02004770    1.00   0.04  0.00  0.00  0.96  0.00  0.00  0.00  0.01  0.00
  HS02004876HS02004881    1.00   0.02  0.00  0.00  0.86  0.12  0.00  0.00  0.00  0.00
  HS02004870HS02004876    1.00   0.01  0.00  0.00  0.99  0.00  0.00  0.00  0.95  0.00
  HS02004842HS02004848    1.00   0.00  0.04  0.00  0.96  0.00  0.00  0.00  0.58  0.00
  HS02004837HS02004842    1.00   0.00  0.00  0.00  0.99  0.01  0.00  0.00  0.11  0.00
  HS02004830HS02004837    1.00   0.00  0.00  0.00  1.00  0.00  0.00  0.00  0.99  0.00
  HS02004824HS02004830    1.00   0.00  0.00  0.00  1.00  0.00  0.00  0.00  0.01  0.00
  HS02004817HS02004824    1.00   0.00  0.00  0.00  1.00  0.00  0.00  0.00  0.98  0.00
  HS02004770HS02004777    1.00   0.00  0.04  0.00  0.96  0.00  0.00  0.00  0.04  0.00
  HS02004799HS02004480    1.00   0.00  0.02  0.00  0.95  0.00  0.02  0.00  0.00  0.00
  HS02004792HS02004799    1.00   0.00  0.00  0.00  0.99  0.01  0.00  0.00  0.98  0.00
  HS02004788HS02004792    1.00   0.00  0.00  0.00  0.99  0.01  0.00  0.00  0.98  0.00
  HS02004785HS02004788    1.00   0.00  0.00  0.00  1.00  0.00  0.00  0.00  0.00  0.00
  HS02004777HS02004785    1.00   0.00  0.00  0.00  1.00  0.00  0.00  0.00  0.15  0.00
  HS02004480HS02004478    1.00   0.04  0.00  0.00  0.66  0.00  0.00  0.30  0.00  0.00
  HS02004479HS02004480    1.00   0.03  0.00  0.00  0.97  0.00  0.00  0.00  0.13  0.00
  HS02004862HS02004870    1.00   0.00  0.00  0.00  1.00  0.00  0.00  0.00  0.06  0.00
  HS02004848HS02004852    1.00   0.04  0.00  0.00  0.96  0.00  0.00  0.00  0.64  0.00
  HS02004856HS02004862    1.00   0.00  0.05  0.00  0.95  0.00  0.00  0.00  0.79  0.00
  HS02004852HS02004856    1.00   0.04  0.00  0.00  0.96  0.00  0.00  0.00  0.81  0.00
  HS02004802HS02004478    1.00   0.04  0.00  0.00  0.96  0.00  0.00  0.00  0.03  0.00
  HS02004478WS02006287    1.00   0.05  0.00  0.00  0.72  0.24  0.00  0.00  0.66  0.00
  HS02004817HS02004807    1.00   0.00  0.04  0.00  0.96  0.00  0.00  0.00  0.01  0.00
  HS02004807HS02004802    1.00   0.04  0.00  0.00  0.96  0.00  0.00  0.00  0.00  0.00
  YS02001759YS02001757    1.00   0.00  0.00  0.00  1.00  0.00  0.00  0.00  0.17  0.00
  YS02001762YS02001759    1.00   0.00  0.00  0.00  1.00  0.00  0.00  0.00  0.04  0.00
  YS02001765YS02001762    1.00   0.00  0.00  0.00  1.00  0.00  0.00  0.00  0.17  0.00
  YS02001770YS02001767    1.00   0.00  0.00  0.00  1.00  0.00  0.00  0.00  0.00  0.00
  YS02001774YS02001770    1.00   0.00  0.04  0.00  0.96  0.00  0.00  0.00  0.04  0.00
  YS02001779YS02001774    1.00   0.00  0.00  0.00  1.00  0.00  0.00  0.00  0.22  0.00
  YS02001649YS02001757    1.00   0.00  0.00  0.00  1.00  0.00  0.00  0.00  0.17  0.00
  YS02001767YS02001765    1.00   0.00  0.00  0.00  1.00  0.00  0.00  0.00  0.01  0.00
  YS02006561YS02001783    1.00   0.06  0.00  0.00  0.45  0.49  0.00  0.00  0.51  0.00
  YS02001783YS02001784    1.00   0.00  0.06  0.00  0.94  0.00  0.00  0.00  0.01  0.00
  YS02001784YS02001785    1.00   0.00  0.00  0.00  1.00  0.00  0.00  0.00  0.21  0.00
  YS02001788YS02001790    1.00   0.00  0.00  0.00  0.51  0.49  0.00  0.00  0.47  0.00
  YS02001790YS02001791    1.00   0.00  0.00  0.00  0.47  0.53  0.00  0.00  0.36  0.00
  YS02001791YS02001793    1.00   0.00  0.00  0.00  0.47  0.53  0.00  0.00  0.01  0.00
  YS02001910YS02001907    1.00   0.00  0.00  0.00  0.98  0.00  0.00  0.02  0.13  0.00
  YS02001786YS02001788    1.00   0.00  0.00  0.00  0.50  0.50  0.00  0.00  0.00  0.00
  YS02001915YS02001910    1.00   0.00  0.00  0.00  0.99  0.01  0.00  0.00  0.19  0.00
  YS02001918YS02001915    1.00   0.00  0.01  0.00  0.98  0.01  0.00  0.00  0.57  0.00
  YS02001923YS02001920    1.00   0.00  0.00  0.00  1.00  0.00  0.00  0.00  0.83  0.00
  YS02001926YS02001923    1.00   0.00  0.03  0.00  0.18  0.00  0.79  0.00  0.00  0.00
  YS02001929YS02001926    1.00   0.00  0.04  0.00  0.96  0.00  0.00  0.00  0.76  0.00
  YS02001920YS02001918    1.00   0.00  0.01  0.00  0.99  0.00  0.00  0.00  0.00  0.00
  YS02001629YS02163301    1.00   0.05  0.00  0.00  0.95  0.00  0.00  0.00  0.00  0.00
  YS02001619YS02001622    1.00   0.04  0.00  0.00  0.96  0.00  0.00  0.00  0.00  0.00
  YS02001622YS02001625    1.00   0.04  0.00  0.00  0.96  0.00  0.00  0.00  0.08  0.00
  YS02001625YS02001629    1.00   0.04  0.02  0.00  0.93  0.00  0.01  0.00  0.00  0.00
  YS02163301YS02001633    1.00   0.00  0.05  0.00  0.95  0.00  0.00  0.00  0.00  0.00
  YS02163601YS02164001    1.00   0.00  0.03  0.00  0.97  0.00  0.00  0.00  0.00  0.00
  YS02164001YS02001641    1.00   0.01  0.03  0.00  0.97  0.00  0.00  0.00  0.06  0.00
  YS02001641YS02001644    1.00   0.00  0.01  0.00  0.99  0.00  0.00  0.00  0.00  0.00
  YS02001647YS02001649    1.00   0.00  0.05  0.00  0.95  0.00  0.00  0.00  0.01  0.00
  YS02006553YS02006556    1.00   0.01  0.00  0.00  0.99  0.00  0.00  0.00  0.03  0.00
  YS02006556YS02006558    1.00   0.00  0.00  0.00  1.00  0.00  0.00  0.00  0.00  0.00
  YSB6556YSB1171          1.00   0.03  0.01  0.00  0.96  0.00  0.00  0.00  0.00  0.00
  YS02001907YS02006553    1.00   0.00  0.02  0.00  0.98  0.00  0.00  0.00  0.00  0.00
  YS02006558YS02006561    1.00   0.06  0.00  0.00  0.20  0.74  0.00  0.00  0.45  0.00
  YS02001633YS02163601    1.00   0.00  0.01  0.00  0.99  0.00  0.00  0.00  0.16  0.00
  YS02001644YS02001647    1.00   0.00  0.05  0.00  0.95  0.00  0.00  0.00  0.00  0.00
  YS02001745YS02001748    1.00   0.00  0.00  0.00  0.89  0.01  0.00  0.10  0.04  0.00
  YS02001748YS02001751    1.00   0.00  0.00  0.00  0.98  0.02  0.00  0.00  0.15  0.00
  YS02001751YS02001754    1.00   0.00  0.00  0.00  0.94  0.00  0.00  0.06  0.02  0.00
  YS02001754YS02001757    1.00   0.00  0.00  0.00  0.99  0.01  0.00  0.00  0.21  0.00
  YS02001882YS02001884    1.00   0.05  0.00  0.00  0.95  0.00  0.00  0.00  0.00  0.00
  YS02001884YS02001887    1.00   0.03  0.01  0.00  0.96  0.00  0.00  0.00  0.00  0.00
  YS02001890YS02001895    1.00   0.00  0.05  0.00  0.95  0.00  0.00  0.00  0.00  0.00
  YS02001895YS02001898    1.00   0.05  0.00  0.00  0.94  0.00  0.01  0.00  0.00  0.00
  YS02001898YS02001901    1.00   0.05  0.00  0.00  0.95  0.00  0.00  0.00  0.03  0.00
  YS02001901YS02001904    1.00   0.05  0.00  0.00  0.95  0.00  0.00  0.00  0.00  0.00
  YS02001904YS02001907    1.00   0.00  0.05  0.00  0.95  0.00  0.00  0.00  0.00  0.00
  YS02001887YS02001890    1.00   0.00  0.00  0.00  0.98  0.00  0.02  0.00  0.00  0.00
  YS02001652YS02001649    1.00   0.00  0.00  0.00  1.00  0.00  0.00  0.00  0.19  0.00
  YS02001655YS02001652    1.00   0.00  0.00  0.00  0.94  0.00  0.00  0.06  0.03  0.00
  YS02001658YS02001655    1.00   0.00  0.04  0.00  0.93  0.02  0.00  0.00  0.13  0.00
  YS02001661YS02001658    1.00   0.04  0.00  0.00  0.89  0.07  0.00  0.00  0.09  0.00
  YS02001664YS02001661    1.00   0.04  0.00  0.00  0.87  0.09  0.00  0.00  0.22  0.00
  YSB1154YSB6556          1.00   0.04  0.00  0.00  0.96  0.00  0.00  0.00  0.02  0.00
  YSB1174YSB1171          1.00   0.03  0.01  0.00  0.96  0.00  0.00  0.00  0.00  0.00
  YSB1171HS02004479       1.00   0.03  0.00  0.00  0.97  0.00  0.00  0.00  0.11  0.00
  HS02004881HS02006253    1.00   0.03  0.00  0.00  0.92  0.00  0.00  0.05  0.74  0.00
  YS02001793JiankangQianchi    1.00   0.00  0.00  0.00  0.65  0.35  0.00  0.00  0.16  0.00
  YS02001757CaochengTiaoxuchi    1.00   0.00  0.07  0.00  0.91  0.02  0.00  0.00  0.00  0.00
  WSF200WS02003060        1.00   0.00  0.06  0.00  0.64  0.30  0.00  0.00  0.07  0.00
  1                       1.00   0.00  0.00  0.00  0.00  1.00  0.00  0.00  0.32  0.00
  2                       1.00   0.81  0.00  0.00  0.00  0.19  0.00  0.00  0.02  0.00
  3                       1.00   0.08  0.00  0.00  0.00  0.92  0.00  0.00  0.25  0.00
  4                       1.00   1.00  0.00  0.00  0.00  0.00  0.00  0.00  0.00  0.00
  
  
  *************************
  Conduit Surcharge Summary
  *************************
  
  ----------------------------------------------------------------------------
                                                           Hours        Hours 
                         --------- Hours Full --------   Above Full   Capacity
  Conduit                Both Ends  Upstream  Dnstream   Normal Flow   Limited
  ----------------------------------------------------------------------------
  WS02006229WS02006228        1.60      1.67      1.60      5.64         1.60
  WS02006256WS02006235        5.99      5.99      7.39      4.54         0.01
  WS02006249WS02006248        0.01      0.01      0.01      5.59         0.01
  WS02006248WS02006247        0.01      0.01      0.08      0.01         0.01
  WS02006247WS02006245        0.10      0.12      0.10      5.75         0.10
  WS02006245WS02006243        0.14      0.14      0.31      0.01         0.01
  WS02006243WS02006242        0.41      0.41      1.00      0.01         0.01
  WS02006242WS02006240        0.87      0.87      1.10      0.01         0.01
  WS02006240WS02006239        0.91      0.91      0.99      0.01         0.01
  WS02006239WS02006238        1.15      1.15      1.24      0.01         0.01
  WS02006238WS02006235        1.21      1.21      1.32      0.01         0.01
  WS02006235WS02006234        1.02      1.02      1.17      6.01         0.01
  WS02006234WS02006232        1.11      1.11      1.42      0.01         0.01
  WS02006232WS02006231        0.87      0.87      1.42      0.01         0.01
  WS02006231WS02006230        0.69      0.69      0.91      6.02         0.01
  WS02006230WS02006229        1.88      5.35      1.88      6.13         1.88
  WS02006228WS02006109        1.63      1.81      1.63      5.85         1.63
  WS02006116WS02004401        0.29      0.29      0.30      0.21         0.22
  WS02006115WS02006116        0.13      0.13      0.14      0.08         0.08
  WS02006112WS02006115        0.11      0.11      1.20      0.01         0.01
  WS02006111WS02006112        0.01      0.01      5.72      0.01         0.01
  WS02006110WS02006113        0.01      0.01      1.74      0.01         0.01
  WS02006109WS02006110        1.07      1.07      1.81      1.07         0.01
  WS02004411WS02004412        0.01      0.01      0.01      0.26         0.01
  WS02004401WS02004402        0.30      0.30      0.36      0.01         0.01
  WS02004410WS02004411        0.01      0.01      0.01      0.19         0.01
  WS02004409WS02004410        0.01      0.01      0.01      0.09         0.01
  WS02004406WS02004407        0.01      0.01      0.60      0.01         0.01
  WS02004405WS02004406        0.60      0.67      0.60      1.13         0.60
  WS02004404WS02004405        0.67      0.76      0.67      5.89         0.67
  WS02004403WS02004404        0.37      0.37      0.76      0.01         0.01
  WS02004402WS02004403        0.36      0.36      0.37      0.28         0.28
  WS02003072WS02003073        0.01      0.01      0.01      5.27         0.01
  HS02004876HS02004881        0.01      0.01      0.01      0.17         0.01
  HS02004785HS02004788        0.01      0.01      0.01      0.10         0.01
  HS02004480HS02004478        0.01      0.01      0.01      0.52         0.01
  YS02001759YS02001757        5.54      5.54      5.62      0.01         0.01
  YS02001762YS02001759        5.51      5.51      5.54      0.01         0.01
  YS02001765YS02001762        5.49      5.49      5.51      0.01         0.01
  YS02001770YS02001767        5.46      5.47      5.47      0.31         0.73
  YS02001774YS02001770        5.45      5.45      5.50      0.01         0.01
  YS02001779YS02001774        5.28      5.28      5.50      0.01         0.01
  YS02001649YS02001757        5.52      5.52      5.62      0.01         0.01
  YS02001767YS02001765        5.47      5.47      5.49      0.01         0.01
  YS02006561YS02001783        0.87      0.87      1.37      0.01         0.01
  YS02001783YS02001784        1.35      1.37      1.42      1.35         1.16
  YS02001784YS02001785        1.33      1.42      1.33      2.21         1.33
  YS02001788YS02001790        1.31      1.31      2.58      0.01         0.01
  YS02001790YS02001791        2.58      2.58      2.74      0.73         0.72
  YS02001791YS02001793        2.74      2.74      2.84      0.01         0.01
  YS02001910YS02001907        1.20      1.20      1.66      0.01         0.01
  YS02001786YS02001788        1.31      1.33      1.31      1.84         1.31
  YS02001915YS02001910        0.98      0.98      1.20      0.01         0.01
  YS02001918YS02001915        0.75      0.75      0.98      0.01         0.01
  YS02001923YS02001920        0.58      0.58      0.79      0.01         0.01
  YS02001926YS02001923        0.01      0.01      0.01      0.01         0.01
  YS02001929YS02001926        0.01      0.01      0.01      0.01         0.01
  YS02001920YS02001918        0.75      0.75      0.79      0.01         0.01
  YS02001629YS02163301        5.45      5.45      5.46      0.01         0.01
  YS02001619YS02001622        5.15      5.15      5.16      0.01         0.01
  YS02001622YS02001625        5.16      5.16      5.34      0.01         0.01
  YS02001625YS02001629        5.15      5.15      5.34      0.01         0.01
  YS02163301YS02001633        5.46      5.46      5.49      0.01         0.01
  YS02163601YS02164001        5.49      5.49      5.52      0.01         0.01
  YS02164001YS02001641        5.49      5.49      5.50      0.01         0.02
  YS02001641YS02001644        5.50      5.50      5.50      1.49         1.41
  YS02001647YS02001649        5.30      5.30      5.52      0.01         0.01
  YS02006553YS02006556        1.41      1.41      1.72      0.01         0.01
  YS02006556YS02006558        1.54      1.54      1.79      0.01         0.01
  YS02001907YS02006553        2.24      2.24      2.45      0.01         0.01
  YS02006558YS02006561        1.05      1.38      1.05      2.09         1.05
  YS02001633YS02163601        5.48      5.48      5.52      0.01         0.01
  YS02001644YS02001647        5.30      5.30      5.50      0.01         0.01
  YS02001745YS02001748        0.01      0.01      5.03      0.01         0.01
  YS02001748YS02001751        5.05      5.05      5.13      0.01         0.01
  YS02001751YS02001754        5.13      5.13      5.29      0.01         0.01
  YS02001754YS02001757        5.30      5.30      5.62      0.01         0.01
  YS02001882YS02001884        0.99      0.99      1.03      0.01         0.01
  YS02001884YS02001887        1.09      1.09      1.12      0.01         0.01
  YS02001890YS02001895        0.96      0.96      1.22      0.01         0.01
  YS02001895YS02001898        0.95      0.95      0.96      0.01         0.01
  YS02001898YS02001901        0.97      0.97      1.08      0.01         0.01
  YS02001901YS02001904        1.06      1.06      1.08      0.01         0.01
  YS02001904YS02001907        1.06      1.06      1.75      0.01         0.01
  YS02001887YS02001890        1.15      1.15      1.18      0.07         0.01
  YS02001652YS02001649        5.31      5.31      5.52      0.01         0.01
  YS02001655YS02001652        5.15      5.15      5.29      0.01         0.01
  YS02001658YS02001655        5.05      5.05      5.15      0.01         0.01
  YS02001661YS02001658        0.24      0.24      5.05      0.01         0.01
  YS02001664YS02001661        0.01      0.01      1.31      0.01         0.01
  YS02001793JiankangQianchi        2.81      2.81      3.70      0.01         0.01
  YS02001757CaochengTiaoxuchi        4.84      4.84      5.62      0.01         0.01
  
  
  ***************
  Pumping Summary
  ***************
  
  ---------------------------------------------------------------------------------------------------------
                                                  Min       Avg       Max     Total     Power    % Time Off
                        Percent   Number of      Flow      Flow      Flow    Volume     Usage    Pump Curve
  Pump                 Utilized   Start-Ups       LPS       LPS       LPS  10^6 ltr     Kw-hr    Low   High
  ---------------------------------------------------------------------------------------------------------
  CC-Pump-1                0.00           0      0.00      0.00      0.00     0.000      0.00    0.0    0.0
  CC-Pump-2               74.42           1      0.00    199.09    200.00     4.162      4.75    0.0   10.5
  JK-Pump-1               55.32           8      0.00    147.77    300.00     1.935     22.43    0.0    0.0
  JK-Pump-2              100.00           2      0.00    219.84    300.00     4.933     49.95    0.0    0.0
  XR-Pump-1               74.46           7      0.00     74.55     95.00     1.539      9.63    0.0    0.0
  XR-Pump-2                0.00           0      0.00      0.00      0.00     0.000      0.00    0.0    0.0
  XR-Pump-3               99.99           4      0.00     81.82     95.00     2.337     16.56    0.0    0.0
  XR-Pump-4               95.74           3      0.00     89.25     95.00     2.309     15.53    0.0    0.0
  

  Analysis begun on:  Thu Jan  6 14:30:20 2022
  Analysis ended on:  Thu Jan  6 14:30:24 2022
  Total elapsed time: 00:00:04