
  EPA STORM WATER MANAGEMENT MODEL - VERSION 5.1 (Build 5.3.0.dev0)
  --------------------------------------------------------------

  WARNING 04: minimum elevation drop used for Conduit WS02004404WS02004405
  WARNING 03: negative offset ignored for Link YS02001904YS02001907
  
  *********************************************************
  NOTE: The summary statistics displayed in this report are
  based on results found at every computational time step,  
  not just on results from each reporting time step.
  *********************************************************
  
  ****************
  Analysis Options
  ****************
  Flow Units ............... LPS
  Process Models:
    Rainfall/Runoff ........ YES
    RDII ................... NO
    Snowmelt ............... NO
    Groundwater ............ NO
    Flow Routing ........... YES
    Ponding Allowed ........ NO
    Water Quality .......... NO
  Infiltration Method ...... HORTON
  Flow Routing Method ...... DYNWAVE
  Surcharge Method ......... EXTRAN
  Starting Date ............ 08/28/2015 08:00:00
  Ending Date .............. 08/28/2015 15:50:00
  Antecedent Dry Days ...... 8.0
  Report Time Step ......... 00:01:00
  Wet Time Step ............ 00:01:00
  Dry Time Step ............ 00:01:00
  Routing Time Step ........ 5.00 sec
  Variable Time Step ....... YES
  Maximum Trials ........... 8
  Number of Threads ........ 4
  Head Tolerance ........... 0.001500 m
  
  
  **************************        Volume         Depth
  Runoff Quantity Continuity     hectare-m            mm
  **************************     ---------       -------
  Total Precipitation ......         6.144        13.452
  Evaporation Loss .........         0.000         0.000
  Infiltration Loss ........         1.572         3.442
  Surface Runoff ...........         3.480         7.619
  Final Storage ............         1.093         2.393
  Continuity Error (%) .....        -0.016
  
  
  **************************        Volume        Volume
  Flow Routing Continuity        hectare-m      10^6 ltr
  **************************     ---------     ---------
  Dry Weather Inflow .......         0.616         6.165
  Wet Weather Inflow .......         3.479        34.789
  Groundwater Inflow .......         0.000         0.000
  RDII Inflow ..............         0.000         0.000
  External Inflow ..........         0.102         1.024
  External Outflow .........         2.029        20.291
  Flooding Loss ............         1.640        16.395
  Evaporation Loss .........         0.000         0.000
  Exfiltration Loss ........         0.000         0.000
  Initial Stored Volume ....         0.076         0.761
  Final Stored Volume ......         0.658         6.580
  Continuity Error (%) .....        -1.235
  
  
  *************************
  Highest Continuity Errors
  *************************
  Node HS02004842 (15.27%)
  Node YS02001884 (12.31%)
  Node JK-storage (-5.59%)
  Node YSB1171 (2.79%)
  Node HS02004817 (2.78%)
  
  
  ***************************
  Time-Step Critical Elements
  ***************************
  Link 3 (55.93%)
  Link WS02006252WS02006251 (38.12%)
  Link WS02006280WS02006229 (1.42%)
  
  
  ********************************
  Highest Flow Instability Indexes
  ********************************
  Link YS02163301YS02001633 (42)
  Link YS02163601YS02164001 (42)
  Link YS02001629YS02163301 (40)
  Link YS02001619YS02001622 (39)
  Link YS02164001YS02001641 (38)
  
  
  *************************
  Routing Time Step Summary
  *************************
  Minimum Time Step           :     0.10 sec
  Average Time Step           :     0.79 sec
  Maximum Time Step           :     5.00 sec
  Percent in Steady State     :    -0.00
  Average Iterations per Step :     4.43
  Percent Not Converging      :    18.31
  
  
  ***************************
  Subcatchment Runoff Summary
  ***************************
  
  ------------------------------------------------------------------------------------------------------------------------------
                            Total      Total      Total      Total     Imperv       Perv      Total       Total     Peak  Runoff
                           Precip      Runon       Evap      Infil     Runoff     Runoff     Runoff      Runoff   Runoff   Coeff
  Subcatchment                 mm         mm         mm         mm         mm         mm         mm    10^6 ltr      LPS
  ------------------------------------------------------------------------------------------------------------------------------
  sub0                      13.45       0.00       0.00       0.89      11.25       0.05      11.30        0.01     3.67   0.840
  sub1                      13.45       0.00       0.00       1.45      10.71       0.03      10.74        0.07    24.31   0.799
  sub2                      13.45       0.00       0.00       4.95       7.56       0.02       7.58        0.07    22.93   0.564
  sub3                      13.45       0.00       0.00       4.96       7.52       0.02       7.54        0.17    51.30   0.560
  sub4                      13.45       0.00       0.00       1.46      10.54       0.02      10.56        0.22    61.94   0.785
  sub5                      13.45       0.00       0.00       0.91      11.19       0.03      11.22        0.13    43.21   0.834
  sub7                      13.45       0.00       0.00       1.17      10.98       0.04      11.03        0.04    13.69   0.820
  sub8                      13.45       0.00       0.00       1.17      10.97       0.04      11.01        0.07    25.15   0.819
  sub9                      13.45       0.00       0.00       1.17      10.97       0.04      11.01        0.05    18.81   0.818
  sub10                     13.45       0.00       0.00       1.04      11.08       0.03      11.11        0.12    42.29   0.826
  sub11                     13.45       0.00       0.00       1.04      11.10       0.04      11.14        0.13    46.68   0.828
  sub12                     13.45       0.00       0.00       1.69      10.51       0.06      10.58        0.09    35.94   0.786
  sub14                     13.45       0.00       0.00       1.17      10.97       0.04      11.01        0.10    37.02   0.818
  sub15                     13.45       0.00       0.00       4.00       8.43       0.04       8.47        0.15    51.03   0.630
  sub16                     13.45       0.00       0.00       4.38       8.09       0.06       8.15        0.09    32.58   0.606
  sub17                     13.45       0.00       0.00       4.25       8.21       0.06       8.27        0.07    26.73   0.615
  sub22                     13.45       0.00       0.00       5.74       6.88       0.04       6.92        0.44   159.06   0.514
  sub23                     13.45       0.00       0.00       4.93       7.60       0.05       7.65        0.36   133.95   0.569
  sub60                     13.45       0.00       0.00       1.61       8.73       0.00       8.74        2.65   387.96   0.649
  sub61                     13.45       0.00       0.00       2.28       8.88       0.00       8.88        2.74   483.52   0.660
  sub62                     13.45       0.00       0.00       1.07       9.65       0.00       9.66        2.97   496.42   0.718
  sub63                     13.45       0.00       0.00       3.90       7.77       0.00       7.77        2.35   446.68   0.578
  sub64                     13.45       0.00       0.00       2.01       8.38       0.00       8.38        2.55   368.35   0.623
  sub65                     13.45       0.00       0.00       1.75       8.52       0.00       8.52        2.62   373.60   0.634
  sub66                     13.45       0.00       0.00       3.90       7.19       0.00       7.19        2.21   337.96   0.535
  sub67                     13.45       0.00       0.00       1.07      10.19       0.01      10.19        3.15   622.58   0.758
  sub68                     13.45       0.00       0.00       1.88       9.34       0.01       9.34        2.87   531.38   0.694
  sub69                     13.45       0.00       0.00       2.01       9.68       0.01       9.69        2.26   503.32   0.720
  sub70                     13.45       9.89       0.00       7.67      12.93       0.26      13.20        3.02   423.72   0.565
  sub71                     13.45       0.00       0.00       1.07       9.40       0.00       9.40        2.22   347.35   0.699
  sub72                     13.45       0.00       0.00       0.94       7.49       0.00       7.50        1.53   163.23   0.557
  sub73                     13.45      12.84       0.00       8.67      14.26       0.27      14.53        3.41   375.92   0.552
  sub74                     13.45       0.00       0.00      10.09       2.88       0.00       2.89        1.15   273.25   0.215
  
  
  ******************
  Node Depth Summary
  ******************
  
  ---------------------------------------------------------------------------------
                                 Average  Maximum  Maximum  Time of Max    Reported
                                   Depth    Depth      HGL   Occurrence   Max Depth
  Node                 Type       Meters   Meters   Meters  days hr:min      Meters
  ---------------------------------------------------------------------------------
  WS02001211           JUNCTION     0.64     0.72     5.56     0  02:52        0.72
  WS02001212           JUNCTION     0.37     0.45     5.52     0  02:53        0.45
  WS02001213           JUNCTION     0.61     0.73     5.49     0  02:53        0.73
  WS02003069           JUNCTION     0.45     0.60     5.19     0  03:06        0.60
  WS02003072           JUNCTION     0.51     0.66     5.03     0  03:07        0.66
  WS02003073           JUNCTION     0.31     0.41     4.47     0  03:07        0.41
  WS02003060           JUNCTION     0.40     0.53     5.46     0  03:06        0.53
  WS02003066           JUNCTION     0.25     0.35     5.91     0  03:05        0.35
  WS02003059           JUNCTION     0.67     0.79     5.48     0  02:54        0.79
  WS02003067           JUNCTION     0.60     0.78     6.10     0  03:05        0.78
  WS02004401           JUNCTION     0.72     1.09     7.09     0  03:03        1.09
  WS02004402           JUNCTION     0.75     1.10     7.06     0  03:03        1.10
  WS02004403           JUNCTION     0.77     1.09     7.02     0  03:03        1.09
  WS02004404           JUNCTION     0.84     1.14     6.99     0  03:03        1.14
  WS02004406           JUNCTION     0.84     1.09     6.92     0  03:03        1.09
  WS02004409           JUNCTION     0.54     0.84     6.61     0  03:04        0.84
  WS02004410           JUNCTION     0.55     0.84     6.56     0  03:04        0.84
  WS02004411           JUNCTION     0.56     0.83     6.51     0  03:04        0.83
  WS02004412           JUNCTION     0.58     0.82     6.46     0  03:05        0.82
  WS02004413           JUNCTION     0.73     0.96     6.43     0  03:05        0.96
  WS02004405           JUNCTION     0.84     1.12     6.97     0  03:03        1.12
  WS02006109           JUNCTION     0.81     1.24     7.86     0  03:02        1.22
  WS02006110           JUNCTION     0.79     1.09     7.68     0  03:02        1.09
  WS02006111           JUNCTION     0.25     0.57     7.28     0  03:03        0.57
  WS02006112           JUNCTION     0.90     1.36     7.25     0  03:03        1.35
  WS02006113           JUNCTION     0.37     0.59     7.48     0  03:03        0.59
  WS02006115           JUNCTION     0.62     1.04     7.18     0  03:03        1.04
  WS02006116           JUNCTION     0.70     1.10     7.14     0  03:03        1.10
  WS02006230           JUNCTION     0.79     1.35     8.09     0  03:02        1.34
  WS02006231           JUNCTION     0.53     0.98     8.11     0  03:02        0.97
  WS02006232           JUNCTION     0.67     1.08     8.12     0  03:02        1.07
  WS02006234           JUNCTION     0.58     0.96     8.12     0  03:02        0.96
  WS02006235           JUNCTION     0.61     0.97     8.14     0  03:02        0.95
  WS02006238           JUNCTION     0.64     1.00     8.14     0  03:03        0.98
  WS02006240           JUNCTION     0.53     0.86     8.15     0  03:02        0.86
  WS02006242           JUNCTION     0.58     0.90     8.17     0  03:02        0.90
  WS02006243           JUNCTION     0.46     0.76     8.18     0  03:02        0.76
  WS02006245           JUNCTION     0.43     0.71     8.20     0  03:02        0.71
  WS02006247           JUNCTION     0.45     0.71     8.21     0  03:02        0.71
  WS02006248           JUNCTION     0.39     0.63     8.22     0  03:02        0.63
  WS02006249           JUNCTION     0.42     0.63     8.22     0  03:03        0.63
  WS02006239           JUNCTION     0.59     0.94     8.15     0  03:02        0.93
  WS02006251           JUNCTION     0.40     0.61     8.28     0  03:02        0.61
  WS02006252           JUNCTION     0.33     0.35     8.59     0  02:06        0.35
  WS02006253           JUNCTION     0.43     0.64     8.29     0  03:01        0.64
  WS02006256           JUNCTION     1.09     2.35     9.28     0  00:00        1.22
  WS02004138           JUNCTION     0.14     0.17     7.42     0  01:54        0.17
  WS02004407           JUNCTION     0.24     0.36     6.67     0  03:03        0.36
  WS02006228           JUNCTION     0.81     1.35     8.00     0  03:02        1.34
  WS02006229           JUNCTION     0.79     1.39     8.08     0  03:02        1.38
  WS02006280           JUNCTION     0.08     0.24     8.52     0  03:02        0.24
  WS02006284           JUNCTION     0.38     0.63     9.02     0  03:02        0.62
  WS02006287           JUNCTION     0.11     0.37     9.32     0  03:02        0.37
  WSF200               JUNCTION     0.24     0.38     5.61     0  03:05        0.38
  HS02004901           JUNCTION     0.14     0.35    10.17     0  03:01        0.35
  HS02004881           JUNCTION     0.01     0.05     9.08     0  03:01        0.05
  HS02004876           JUNCTION     0.05     0.15     9.18     0  03:01        0.15
  HS02004870           JUNCTION     0.02     0.09     9.37     0  03:01        0.09
  HS02004862           JUNCTION     0.02     0.10     9.49     0  03:01        0.10
  HS02004856           JUNCTION     0.08     0.15     9.57     0  03:01        0.15
  HS02004852           JUNCTION     0.01     0.07     9.58     0  03:02        0.07
  HS02004848           JUNCTION     0.01     0.06     9.67     0  03:01        0.06
  HS02004842           JUNCTION     0.34     0.40     9.67     0  03:01        0.40
  HS02004837           JUNCTION     0.03     0.09     9.67     0  03:01        0.09
  HS02004830           JUNCTION     0.04     0.10     9.57     0  03:01        0.10
  HS02004824           JUNCTION     0.03     0.11     9.51     0  03:02        0.11
  HS02004817           JUNCTION     0.45     0.67     9.52     0  03:02        0.67
  HS02004807           JUNCTION     0.14     0.34     9.51     0  03:02        0.34
  HS02004802           JUNCTION     0.17     0.38     9.50     0  03:02        0.38
  HS02004799           JUNCTION     0.14     0.43     9.65     0  03:01        0.43
  HS02004792           JUNCTION     0.04     0.20     9.72     0  03:01        0.19
  HS02004788           JUNCTION     0.03     0.14    10.04     0  03:02        0.14
  HS02004785           JUNCTION     0.06     0.23    10.13     0  03:02        0.23
  HS02004777           JUNCTION     0.16     0.37    10.17     0  03:01        0.37
  HS02004770           JUNCTION     0.13     0.34    10.17     0  03:01        0.34
  HS02004480           JUNCTION     0.10     0.35     9.59     0  03:01        0.35
  HS02004479           JUNCTION     0.13     0.39     9.60     0  03:01        0.39
  HS02004478           JUNCTION     0.07     0.26     9.48     0  03:01        0.26
  YS02001745           JUNCTION     0.70     0.89     8.40     0  03:23        0.89
  YS02001748           JUNCTION     1.09     2.27     9.35     0  02:46        1.33
  YS02001751           JUNCTION     1.28     2.20     9.08     0  02:46        1.53
  YS02001754           JUNCTION     1.53     2.20     8.81     0  02:47        1.82
  YS02001762           JUNCTION     1.73     2.10     8.50     0  02:46        2.02
  YS02001765           JUNCTION     1.68     2.03     8.48     0  02:46        1.97
  YS02001767           JUNCTION     1.65     1.99     8.48     0  02:46        1.92
  YS02001770           JUNCTION     1.64     1.95     8.44     0  02:46        1.90
  YS02001774           JUNCTION     1.71     2.02     8.44     0  02:46        1.97
  YS02001779           JUNCTION     1.46     1.68     8.37     0  02:44        1.68
  YS02001882           JUNCTION     0.59     1.69     8.40     0  02:53        1.62
  YS02001884           JUNCTION     0.69     1.77     8.39     0  02:53        1.72
  YS02001759           JUNCTION     1.77     2.13     8.49     0  02:47        2.06
  YS02001887           JUNCTION     0.77     1.83     8.36     0  02:53        1.80
  YS02001890           JUNCTION     0.79     1.81     8.32     0  02:53        1.81
  YS02001898           JUNCTION     0.56     1.57     8.31     0  02:53        1.56
  YS02001901           JUNCTION     0.68     1.68     8.29     0  02:54        1.67
  YS02001904           JUNCTION     0.66     1.65     8.28     0  02:53        1.63
  YS02001907           JUNCTION     0.99     1.96     8.25     0  02:53        1.96
  YS02001910           JUNCTION     0.78     1.98     8.49     0  02:55        1.78
  YS02001915           JUNCTION     0.58     1.93     8.65     0  02:55        1.60
  YS02001918           JUNCTION     0.31     1.81     8.88     0  02:55        1.31
  YS02001619           JUNCTION     1.25     1.61     8.54     0  02:42        1.48
  YS02001629           JUNCTION     1.60     1.85     8.40     0  02:42        1.85
  YS02001641           JUNCTION     1.70     1.97     8.41     0  02:46        1.93
  YS02001644           JUNCTION     1.70     1.92     8.35     0  02:46        1.92
  YS02001652           JUNCTION     1.54     2.16     8.76     0  02:54        2.09
  YS02001655           JUNCTION     1.31     2.20     9.05     0  02:41        2.00
  YS02001920           JUNCTION     0.41     2.11     9.12     0  02:55        1.40
  YS02001923           JUNCTION     0.25     2.03     9.29     0  02:55        1.17
  YS02001926           JUNCTION     0.29     1.65     9.09     0  02:55        0.98
  YS02001929           JUNCTION     0.17     0.99     8.69     0  02:55        0.69
  YS02001658           JUNCTION     1.04     2.30     9.44     0  02:42        1.78
  YS02001661           JUNCTION     0.81     2.46     9.86     0  02:57        1.73
  YS02001664           JUNCTION     0.36     0.57     8.49     0  04:38        0.56
  YS02001622           JUNCTION     1.27     1.62     8.52     0  02:42        1.50
  YS02001633           JUNCTION     1.69     2.00     8.45     0  02:46        1.95
  YS02001649           JUNCTION     1.74     2.05     8.44     0  02:42        2.05
  YS02001757           JUNCTION     1.86     2.21     8.47     0  02:46        2.17
  YS02001895           JUNCTION     0.56     1.57     8.32     0  02:53        1.56
  YS02001625           JUNCTION     1.55     1.78     8.38     0  02:42        1.78
  YS02163301           JUNCTION     1.63     1.91     8.43     0  02:46        1.89
  YS02163601           JUNCTION     1.74     2.06     8.46     0  02:46        1.99
  YS02164001           JUNCTION     1.68     1.99     8.44     0  02:46        1.92
  YS02001647           JUNCTION     1.53     1.81     8.42     0  02:47        1.79
  YSB1154              JUNCTION     0.27     0.54     9.60     0  03:01        0.54
  YSB6556              JUNCTION     0.16     0.43     9.60     0  03:02        0.43
  YSB1174              JUNCTION     0.22     0.49     9.60     0  03:01        0.49
  YSB1171              JUNCTION     0.42     0.69     9.60     0  03:01        0.69
  YS02006553           JUNCTION     0.99     2.16     8.45     0  02:53        1.96
  YS02006561           JUNCTION     0.34     1.95     8.61     0  02:53        1.08
  YS02006556           JUNCTION     0.96     2.36     8.67     0  02:53        1.93
  YS02006558           JUNCTION     1.00     2.47     8.73     0  02:53        1.97
  YS02001783           JUNCTION     0.57     2.19     8.33     0  02:53        1.47
  YS02001784           JUNCTION     0.58     2.13     8.19     0  02:53        1.42
  YS02001786           JUNCTION     0.51     2.23     8.26     0  02:53        1.26
  YS02001788           JUNCTION     0.43     2.06     8.04     0  02:53        1.13
  YS02001790           JUNCTION     0.52     1.89     7.53     0  02:53        1.29
  YS02001791           JUNCTION     0.47     1.92     7.39     0  02:52        1.27
  YS02001793           JUNCTION     0.62     1.98     6.81     0  02:52        1.80
  WS02004139           JUNCTION     0.58     0.66     5.57     0  02:52        0.66
  WSC                  OUTFALL      0.31     0.41     1.08     0  03:08        0.41
  3                    OUTFALL      0.13     0.23     6.23     0  00:00        0.21
  4                    OUTFALL      0.01     0.13     7.13     0  03:03        0.13
  5                    OUTFALL      0.00     0.00     5.00     0  00:00        0.00
  JK-storage           STORAGE      2.49     5.80     6.60     0  02:53        5.80
  CC-storage           STORAGE      1.08     1.38     8.38     0  03:30        1.38
  XR-storage           STORAGE      7.47     7.72     5.72     0  02:34        7.72
  
  
  *******************
  Node Inflow Summary
  *******************
  
  -------------------------------------------------------------------------------------------------
                                  Maximum  Maximum                  Lateral       Total        Flow
                                  Lateral    Total  Time of Max      Inflow      Inflow     Balance
                                   Inflow   Inflow   Occurrence      Volume      Volume       Error
  Node                 Type           LPS      LPS  days hr:min    10^6 ltr    10^6 ltr     Percent
  -------------------------------------------------------------------------------------------------
  WS02001211           JUNCTION      7.35   292.67     0  02:08       0.207        5.94       0.522
  WS02001212           JUNCTION      0.00   292.68     0  02:08           0        5.91       0.288
  WS02001213           JUNCTION      0.00   292.72     0  02:07           0        5.89       0.343
  WS02003069           JUNCTION      0.32   991.63     0  03:06     0.00902        14.7       0.189
  WS02003072           JUNCTION      0.00   991.39     0  03:06           0        14.7       0.235
  WS02003073           JUNCTION      1.82   993.21     0  03:07      0.0514        14.7       0.262
  WS02003060           JUNCTION     16.53   991.44     0  03:05       0.466        14.7       0.179
  WS02003066           JUNCTION      0.00   784.99     0  03:05           0        8.43       0.054
  WS02003059           JUNCTION      0.00   292.72     0  02:00           0        5.87       0.605
  WS02003067           JUNCTION      0.00   784.57     0  03:05           0        8.44       0.113
  WS02004401           JUNCTION      0.00   787.64     0  03:03           0        8.68       0.252
  WS02004402           JUNCTION      0.00   787.69     0  03:03           0        8.66       0.238
  WS02004403           JUNCTION      0.00   787.72     0  03:03           0        8.64       0.216
  WS02004404           JUNCTION      0.16   787.91     0  03:03     0.00457        8.63       0.162
  WS02004406           JUNCTION      0.00   787.98     0  03:03           0        8.59       0.394
  WS02004409           JUNCTION      0.00   787.77     0  03:03           0        8.55       0.197
  WS02004410           JUNCTION      0.00   786.33     0  03:04           0        8.53       0.223
  WS02004411           JUNCTION      0.00   785.25     0  03:04           0        8.52       0.228
  WS02004412           JUNCTION      0.00   784.69     0  03:04           0         8.5       0.245
  WS02004413           JUNCTION      0.00   784.49     0  03:05           0        8.48       0.363
  WS02004405           JUNCTION      0.04   787.96     0  03:03     0.00107        8.61       0.244
  WS02006109           JUNCTION      1.23   772.74     0  03:02      0.0347        8.74       0.262
  WS02006110           JUNCTION      0.00   772.71     0  03:02           0        8.72       0.232
  WS02006111           JUNCTION      0.00   769.95     0  03:03           0        8.69       0.052
  WS02006112           JUNCTION     26.73   787.05     0  03:03      0.0709        8.75       0.324
  WS02006113           JUNCTION      0.00   772.74     0  03:02           0         8.7       0.115
  WS02006115           JUNCTION      0.00   787.06     0  03:03           0        8.72       0.241
  WS02006116           JUNCTION      0.00   787.42     0  03:03           0         8.7       0.232
  WS02006230           JUNCTION     10.28   352.59     0  03:26        0.29        6.65       0.198
  WS02006231           JUNCTION      0.00   340.20     0  03:25           0        6.37       0.192
  WS02006232           JUNCTION      0.00   340.13     0  03:26           0        6.39       0.260
  WS02006234           JUNCTION      0.00   339.00     0  03:27           0         6.4       0.132
  WS02006235           JUNCTION      0.00   338.52     0  03:25           0        6.44       0.170
  WS02006238           JUNCTION      0.00   248.35     0  03:25           0        4.31       0.187
  WS02006240           JUNCTION      0.00   244.37     0  03:24           0         4.3       0.285
  WS02006242           JUNCTION      0.00   242.50     0  03:22           0        4.31       0.340
  WS02006243           JUNCTION      0.00   239.92     0  03:22           0        4.31       0.185
  WS02006245           JUNCTION      0.00   239.66     0  02:12           0        4.32       0.182
  WS02006247           JUNCTION      0.00   240.96     0  02:13           0        4.32       0.160
  WS02006248           JUNCTION      0.00   242.45     0  02:14           0        4.33       0.105
  WS02006249           JUNCTION      0.00   333.97     0  03:01           0        4.56       0.216
  WS02006239           JUNCTION      0.00   246.43     0  03:25           0         4.3       0.278
  WS02006251           JUNCTION      0.08   334.45     0  03:01     0.00217        4.57       0.193
  WS02006252           JUNCTION      0.00   200.00     0  02:06           0        4.16       0.010
  WS02006253           JUNCTION      3.67   134.78     0  03:01     0.00915       0.412       0.918
  WS02006256           JUNCTION      0.00   600.00     0  00:00           0        7.57       0.029
  WS02004138           JUNCTION      0.00   285.00     0  01:40           0        5.76       0.064
  WS02004407           JUNCTION      0.00   788.01     0  03:03           0        8.56       0.089
  WS02006228           JUNCTION      0.00   771.55     0  03:02           0        8.72       0.187
  WS02006229           JUNCTION      0.00   771.45     0  03:02           0        8.73       0.128
  WS02006280           JUNCTION      0.00   611.96     0  03:02           0         2.1       0.003
  WS02006284           JUNCTION      0.10   611.07     0  03:02      0.0027         2.1       0.059
  WS02006287           JUNCTION      0.00   609.84     0  03:02           0         2.1       0.034
  WSF200               JUNCTION      0.00   785.13     0  03:05           0        8.43       0.055
  HS02004901           JUNCTION     32.58    32.58     0  03:01      0.0854      0.0856       2.108
  HS02004881           JUNCTION     13.69   131.68     0  03:01      0.0372       0.403       0.076
  HS02004876           JUNCTION     24.31   119.37     0  03:01      0.0714       0.367       0.153
  HS02004870           JUNCTION     25.15    96.63     0  03:01      0.0703       0.295       0.038
  HS02004862           JUNCTION     23.13    73.48     0  03:01      0.0763       0.225       0.079
  HS02004856           JUNCTION     18.81    51.88     0  03:01      0.0529        0.15       0.973
  HS02004852           JUNCTION      0.00    35.11     0  03:01           0      0.0975       0.061
  HS02004848           JUNCTION     51.30    51.30     0  03:01        0.17        0.17       0.030
  HS02004842           JUNCTION      0.00    15.11     0  03:01           0      0.0852      18.024
  HS02004837           JUNCTION     48.64    62.30     0  03:01       0.302       0.374       0.219
  HS02004830           JUNCTION      0.15    61.39     0  03:01     0.00423       0.364       0.340
  HS02004824           JUNCTION     61.99   121.77     0  03:01       0.222       0.584       0.093
  HS02004817           JUNCTION      0.60   117.99     0  03:02      0.0169       0.601       2.855
  HS02004807           JUNCTION     46.68   158.05     0  03:01       0.129       0.713       0.602
  HS02004802           JUNCTION      0.00   156.92     0  03:03           0       0.709       0.572
  HS02004799           JUNCTION     37.02   389.11     0  03:01       0.105        1.19       0.208
  HS02004792           JUNCTION    159.34   356.47     0  03:01       0.445        1.08       0.038
  HS02004788           JUNCTION     52.70   202.58     0  03:02       0.193       0.638       0.061
  HS02004785           JUNCTION      0.15   157.28     0  03:01     0.00423       0.447       0.112
  HS02004777           JUNCTION      0.03   160.02     0  03:01    0.000846       0.447       1.175
  HS02004770           JUNCTION    133.95   163.76     0  03:01       0.365       0.449       0.699
  HS02004480           JUNCTION      0.00   456.70     0  03:01           0         1.4       0.083
  HS02004479           JUNCTION      0.00    72.19     0  03:02           0       0.228       0.322
  HS02004478           JUNCTION      0.00   609.31     0  03:02           0         2.1       0.019
  YS02001745           JUNCTION    387.96   456.31     0  02:45        2.65        2.65       0.426
  YS02001748           JUNCTION      0.04   654.94     0  02:46     0.00127        2.64       0.883
  YS02001751           JUNCTION      0.01   398.79     0  03:01     0.00031        2.61       0.906
  YS02001754           JUNCTION      0.26   399.04     0  03:01     0.00733         2.6       0.963
  YS02001762           JUNCTION      0.00   380.69     0  02:54           0        1.77       1.211
  YS02001765           JUNCTION      0.00   379.56     0  02:54           0        1.77       1.392
  YS02001767           JUNCTION      0.54   379.68     0  02:54      0.0151        1.79       2.040
  YS02001770           JUNCTION    496.57   496.57     0  03:01        2.97         3.1       1.027
  YS02001774           JUNCTION      0.00   389.75     0  03:31           0        1.43       1.784
  YS02001779           JUNCTION      0.01   390.26     0  03:31    0.000141         1.4       1.112
  YS02001882           JUNCTION      0.00    21.11     0  02:49           0      0.0171      16.517
  YS02001884           JUNCTION      0.00    28.59     0  02:47           0      0.0519      14.038
  YS02001759           JUNCTION    483.56   765.66     0  02:55        2.74        4.34       0.532
  YS02001887           JUNCTION    623.03   623.06     0  03:01        3.16        3.19       0.274
  YS02001890           JUNCTION      0.00   623.34     0  03:01           0        3.14       0.301
  YS02001898           JUNCTION      0.00   516.76     0  03:03           0        3.09       0.114
  YS02001901           JUNCTION      0.00   516.86     0  03:02           0        3.08       0.233
  YS02001904           JUNCTION      0.00   516.76     0  03:03           0        3.08       0.214
  YS02001907           JUNCTION      0.00  1178.99     0  02:56           0        6.88       0.358
  YS02001910           JUNCTION      0.00   671.51     0  02:56           0        3.81       0.312
  YS02001915           JUNCTION    347.37   671.36     0  02:56        2.22        3.85       0.169
  YS02001918           JUNCTION      0.00   385.64     0  02:56           0        1.65       0.121
  YS02001619           JUNCTION    337.96   337.96     0  03:01        2.21        2.21       0.555
  YS02001629           JUNCTION      0.00   221.44     0  02:49           0        1.57       1.855
  YS02001641           JUNCTION      0.00   466.12     0  02:50           0        4.09       0.518
  YS02001644           JUNCTION    368.39  1123.86     0  03:25        2.55        9.05       0.289
  YS02001652           JUNCTION      0.00   485.00     0  03:01           0         2.3       1.014
  YS02001655           JUNCTION      0.15   485.12     0  03:01     0.00434        2.33       1.098
  YS02001920           JUNCTION      2.87   385.41     0  02:56      0.0809        1.64       0.187
  YS02001923           JUNCTION      0.04   317.11     0  02:56     0.00106        1.55       0.039
  YS02001926           JUNCTION      0.05   255.60     0  02:55     0.00147        1.54       0.226
  YS02001929           JUNCTION    163.23   248.12     0  02:55        1.53        1.53       0.034
  YS02001658           JUNCTION      0.00   630.09     0  02:42           0        2.35       0.979
  YS02001661           JUNCTION      0.00   735.91     0  02:55           0        3.07       0.017
  YS02001664           JUNCTION    446.68   446.68     0  03:01        2.35        3.07       0.246
  YS02001622           JUNCTION      0.00   338.27     0  03:01           0        2.19       1.466
  YS02001633           JUNCTION    373.80   466.12     0  02:50        2.63        4.15       0.780
  YS02001649           JUNCTION      0.00   987.47     0  02:50           0        4.99       0.752
  YS02001757           JUNCTION      0.00  1933.33     0  02:52           0        9.24       1.009
  YS02001895           JUNCTION      0.00   516.76     0  03:02           0        3.09       0.169
  YS02001625           JUNCTION      0.00   338.06     0  03:01           0        2.16       1.814
  YS02163301           JUNCTION      0.00   221.82     0  02:49           0        1.55       1.569
  YS02163601           JUNCTION      0.11   466.14     0  02:50      0.0031        4.11       0.737
  YS02164001           JUNCTION      0.00   466.12     0  02:50           0        4.09       0.494
  YS02001647           JUNCTION      0.00   711.58     0  02:50           0        3.99       0.713
  YSB1154              JUNCTION     43.21    43.21     0  03:01       0.127       0.128       1.144
  YSB6556              JUNCTION      0.00    41.77     0  03:01           0       0.129       0.980
  YSB1174              JUNCTION     35.94    35.94     0  03:01      0.0924      0.0931       1.403
  YSB1171              JUNCTION      0.00    73.33     0  03:01           0       0.227       2.865
  YS02006553           JUNCTION      0.00   676.60     0  02:52           0        6.18       0.253
  YS02006561           JUNCTION      0.00  1071.89     0  02:53           0        9.02       0.007
  YS02006556           JUNCTION      0.00   676.53     0  02:52           0        6.18       0.186
  YS02006558           JUNCTION    532.26  1072.11     0  02:53         2.9        9.05       0.062
  YS02001783           JUNCTION      0.00  1056.34     0  02:52           0        9.02       0.028
  YS02001784           JUNCTION      1.06  1057.37     0  02:52      0.0299        9.05       0.045
  YS02001786           JUNCTION      0.06  1057.16     0  02:52     0.00159        9.05       0.042
  YS02001788           JUNCTION      0.07  1050.89     0  02:53       0.002        9.04       0.023
  YS02001790           JUNCTION      0.15  1029.08     0  02:52     0.00437        9.05       0.033
  YS02001791           JUNCTION      0.00  1065.51     0  02:51           0        9.04       0.012
  YS02001793           JUNCTION      0.00   986.74     0  02:53           0        9.04       0.003
  WS02004139           JUNCTION      0.32   285.32     0  01:42     0.00905        5.76       0.557
  WSC                  OUTFALL       0.00   993.11     0  03:08           0        14.7       0.000
  3                    OUTFALL       0.00   597.65     0  00:00           0        5.41       0.000
  4                    OUTFALL       0.00   152.53     0  03:03           0       0.226       0.000
  5                    OUTFALL       0.00     0.00     0  00:00           0           0       0.000 ltr
  JK-storage           STORAGE       0.00   988.06     0  02:53           0        9.19      -5.296
  CC-storage           STORAGE       0.00  1933.38     0  02:52           0        7.96       0.818
  XR-storage           STORAGE     849.17   849.17     0  03:01        10.2        10.8      -0.000
  
  
  **********************
  Node Surcharge Summary
  **********************
  
  Surcharging occurs when water rises above the top of the highest conduit.
  ---------------------------------------------------------------------
                                               Max. Height   Min. Depth
                                   Hours       Above Crown    Below Rim
  Node                 Type      Surcharged         Meters       Meters
  ---------------------------------------------------------------------
  WS02004401           JUNCTION        0.31          0.092        1.568
  WS02004402           JUNCTION        0.36          0.096        1.644
  WS02004403           JUNCTION        0.38          0.088        1.942
  WS02004404           JUNCTION        0.76          0.141        2.639
  WS02004406           JUNCTION        0.60          0.095        2.355
  WS02004405           JUNCTION        0.68          0.123        2.677
  WS02006109           JUNCTION        1.60          0.419        1.401
  WS02006110           JUNCTION        1.06          0.182        1.668
  WS02006112           JUNCTION        1.18          0.363        1.317
  WS02006115           JUNCTION        0.09          0.031        2.219
  WS02006116           JUNCTION        0.13          0.039        2.251
  WS02006230           JUNCTION        0.69          0.268        1.302
  WS02006231           JUNCTION        0.86          0.275        1.255
  WS02006232           JUNCTION        1.36          0.377        1.103
  WS02006234           JUNCTION        1.03          0.244        0.996
  WS02006235           JUNCTION        1.15          0.262        1.028
  WS02006238           JUNCTION        1.19          0.277        1.153
  WS02006240           JUNCTION        0.88          0.150        1.240
  WS02006242           JUNCTION        1.01          0.169        0.651
  WS02006243           JUNCTION        0.37          0.055        0.715
  WS02006245           JUNCTION        0.03          0.004        0.846
  WS02006239           JUNCTION        1.01          0.198        1.092
  WS02006256           JUNCTION        0.01          1.050        0.000
  WS02006228           JUNCTION        1.57          0.520        1.680
  YS02001748           JUNCTION        5.03          1.190        0.000
  YS02001751           JUNCTION        5.13          1.200        0.000
  YS02001754           JUNCTION        5.29          1.150        0.000
  YS02001762           JUNCTION        5.51          1.096        0.054
  YS02001765           JUNCTION        5.49          1.031        0.069
  YS02001767           JUNCTION        5.47          0.993        0.037
  YS02001770           JUNCTION        5.45          0.920        0.000
  YS02001774           JUNCTION        5.50          1.018        0.032
  YS02001779           JUNCTION        5.28          0.680        0.000
  YS02001882           JUNCTION        0.99          0.689        0.141
  YS02001884           JUNCTION        1.03          0.712        0.158
  YS02001759           JUNCTION        5.54          1.128        0.082
  YS02001887           JUNCTION        1.12          0.776        0.174
  YS02001890           JUNCTION        1.15          0.760        0.000
  YS02001898           JUNCTION        0.94          0.542        0.198
  YS02001901           JUNCTION        1.08          0.680        0.190
  YS02001904           JUNCTION        1.06          0.647        0.203
  YS02001907           JUNCTION        1.66          0.950        0.000
  YS02001910           JUNCTION        1.20          0.984        0.116
  YS02001915           JUNCTION        0.98          0.931        0.069
  YS02001918           JUNCTION        0.74          0.810        0.000
  YS02001619           JUNCTION        5.14          0.610        0.000
  YS02001629           JUNCTION        5.15          0.470        0.000
  YS02001641           JUNCTION        5.50          0.972        0.128
  YS02001644           JUNCTION        5.50          0.920        0.000
  YS02001652           JUNCTION        5.30          1.130        0.000
  YS02001655           JUNCTION        5.15          1.200        0.000
  YS02001920           JUNCTION        0.77          1.109        0.031
  YS02001923           JUNCTION        0.01          0.820        0.000
  YS02001926           JUNCTION        0.01          0.648        0.252
  YS02001658           JUNCTION        5.05          1.300        0.000
  YS02001661           JUNCTION        0.25          1.390        0.000
  YS02001622           JUNCTION        5.16          0.620        0.000
  YS02001633           JUNCTION        5.48          0.978        0.082
  YS02001649           JUNCTION        5.52          1.050        0.000
  YS02001757           JUNCTION        5.62          1.210        0.000
  YS02001895           JUNCTION        0.96          0.572        0.178
  YS02001625           JUNCTION        5.34          0.780        0.000
  YS02163301           JUNCTION        5.46          0.913        0.117
  YS02163601           JUNCTION        5.52          1.058        0.022
  YS02164001           JUNCTION        5.49          0.986        0.114
  YS02001647           JUNCTION        5.30          0.813        0.087
  YS02006553           JUNCTION        1.71          1.163        0.027
  YS02006561           JUNCTION        0.84          1.150        0.000
  YS02006556           JUNCTION        1.41          1.323        0.027
  YS02006558           JUNCTION        1.38          1.366        0.034
  YS02001783           JUNCTION        1.37          1.394        0.206
  YS02001784           JUNCTION        1.41          1.327        0.163
  YS02001786           JUNCTION        1.28          1.430        0.000
  YS02001788           JUNCTION        1.27          1.260        0.220
  YS02001790           JUNCTION        1.53          1.089        0.068
  YS02001791           JUNCTION        1.56          1.122        0.798
  YS02001793           JUNCTION        1.83          0.975        1.625
  
  
  *********************
  Node Flooding Summary
  *********************
  
  Flooding refers to all water that overflows a node, whether it ponds or not.
  --------------------------------------------------------------------------
                                                             Total   Maximum
                                 Maximum   Time of Max       Flood    Ponded
                        Hours       Rate    Occurrence      Volume     Depth
  Node                 Flooded       LPS   days hr:min    10^6 ltr    Meters
  --------------------------------------------------------------------------
  WS02006256              0.01    406.11      0  00:00       0.001     0.000
  YS02001748              0.01    321.75      0  02:46       0.001     0.000
  YS02001751              0.01      7.61      0  02:46       0.000     0.000
  YS02001754              0.01     18.51      0  02:47       0.000     0.000
  YS02001770              0.01      9.77      0  02:46       0.000     0.000
  YS02001779              2.69    390.10      0  03:31       1.382     0.000
  YS02001890              0.23    107.18      0  03:01       0.038     0.000
  YS02001907              0.60    670.13      0  03:00       0.690     0.000
  YS02001918              0.01     18.39      0  02:55       0.000     0.000
  YS02001619              0.01     19.59      0  02:43       0.000     0.000
  YS02001629              0.01     33.41      0  02:43       0.000     0.000
  YS02001644              4.91   1123.76      0  03:25       7.453     0.000
  YS02001652              0.01     13.07      0  02:57       0.000     0.000
  YS02001655              0.01    132.36      0  02:41       0.000     0.000
  YS02001923              0.01     58.99      0  02:55       0.000     0.000
  YS02001658              0.01    191.02      0  02:42       0.000     0.000
  YS02001661              0.01    138.15      0  02:58       0.000     0.000
  YS02001622              0.01     32.64      0  02:42       0.000     0.000
  YS02001649              0.10     42.43      0  02:58       0.005     0.000
  YS02001757              0.01     19.63      0  02:46       0.000     0.000
  YS02001625              1.13    317.28      0  03:01       0.556     0.000
  YS02006561              0.01     57.16      0  02:53       0.000     0.000
  YS02001786              0.01     84.64      0  02:53       0.000     0.000
  JK-storage              1.40    670.54      0  03:00       2.146     0.000
  XR-storage              4.94    659.16      0  03:01       4.124     0.000
  
  
  **********************
  Storage Volume Summary
  **********************
  
  --------------------------------------------------------------------------------------------------
                         Average     Avg  Evap Exfil       Maximum     Max    Time of Max    Maximum
                          Volume    Pcnt  Pcnt  Pcnt        Volume    Pcnt     Occurrence    Outflow
  Storage Unit           1000 m3    Full  Loss  Loss       1000 m3    Full    days hr:min        LPS
  --------------------------------------------------------------------------------------------------
  JK-storage               0.125      43     0     0         0.291     100       0  02:53     600.00
  CC-storage               3.017      19     0     0         3.855      25       0  03:30     200.00
  XR-storage               0.897      97     0     0         0.926     100       0  02:34     285.00
  
  
  ***********************
  Outfall Loading Summary
  ***********************
  
  -----------------------------------------------------------
                         Flow       Avg       Max       Total
                         Freq      Flow      Flow      Volume
  Outfall Node           Pcnt       LPS       LPS    10^6 ltr
  -----------------------------------------------------------
  WSC                   99.99    609.70    993.11      14.659
  3                     93.29    272.94    597.65       5.405
  4                     18.58     59.05    152.53       0.226
  5                      0.00      0.00      0.00       0.000
  -----------------------------------------------------------
  System                52.97    941.70   1477.43      20.291
  
  
  ********************
  Link Flow Summary
  ********************
  
  -----------------------------------------------------------------------------
                                 Maximum  Time of Max   Maximum    Max/    Max/
                                  |Flow|   Occurrence   |Veloc|    Full    Full
  Link                 Type          LPS  days hr:min     m/sec    Flow   Depth
  -----------------------------------------------------------------------------
  WS02003066WSF200     CONDUIT    785.13     0  03:05      2.98    0.13    0.28
  WS02006287WS02006284 CONDUIT    610.97     0  03:02      2.31    0.28    0.37
  WS02006284WS02006280 CONDUIT    611.96     0  03:02      2.55    0.26    0.35
  WS02006280WS02006229 CONDUIT    612.08     0  03:02      4.12    0.13    0.24
  WS02006229WS02006228 CONDUIT    771.55     0  03:02      1.53    2.56    1.00
  WS02006256WS02006235 CONDUIT    177.52     0  00:01      2.73    1.88    1.00
  WS02006253WS02006251 CONDUIT    134.37     0  03:01      0.45    0.40    0.89
  WS02006252WS02006251 CONDUIT    200.32     0  02:06      1.97    0.74    0.76
  WS02006251WS02006249 CONDUIT    333.97     0  03:01      0.97    0.96    0.88
  WS02006249WS02006248 CONDUIT    242.45     0  02:14      1.05    1.33    0.88
  WS02006248WS02006247 CONDUIT    240.96     0  02:13      1.02    0.52    0.95
  WS02006247WS02006245 CONDUIT    239.66     0  02:12      0.98    1.90    1.00
  WS02006245WS02006243 CONDUIT    239.92     0  03:22      1.03    0.71    1.00
  WS02006243WS02006242 CONDUIT    242.50     0  03:22      0.88    0.52    1.00
  WS02006242WS02006240 CONDUIT    244.37     0  03:24      0.81    0.97    1.00
  WS02006240WS02006239 CONDUIT    246.43     0  03:25      0.86    0.78    1.00
  WS02006239WS02006238 CONDUIT    248.35     0  03:25      0.76    0.79    1.00
  WS02006238WS02006235 CONDUIT    248.35     0  03:25      1.32    0.55    1.00
  WS02006235WS02006234 CONDUIT    339.00     0  03:27      0.95    3.58    1.00
  WS02006234WS02006232 CONDUIT    340.13     0  03:26      1.17    0.69    1.00
  WS02006232WS02006231 CONDUIT    340.20     0  03:25      0.95    0.71    1.00
  WS02006231WS02006230 CONDUIT    342.31     0  03:26      1.30    5.19    1.00
  WS02006230WS02006229 CONDUIT    355.23     0  03:26      0.92    7.91    1.00
  WS02006228WS02006109 CONDUIT    771.51     0  03:02      1.53    3.37    1.00
  WS02006116WS02004401 CONDUIT    787.64     0  03:03      1.00    1.09    1.00
  WS02006115WS02006116 CONDUIT    787.42     0  03:03      1.00    1.01    1.00
  WS02006113WS02006111 CONDUIT    769.95     0  03:03      2.59    0.92    0.73
  WS02006112WS02006115 CONDUIT    787.06     0  03:03      1.00    0.46    1.00
  WS02006111WS02006112 CONDUIT    769.63     0  03:04      1.72    0.37    0.85
  WS02006110WS02006113 CONDUIT    772.74     0  03:02      1.67    0.70    0.87
  WS02006109WS02006110 CONDUIT    772.71     0  03:02      1.54    1.49    1.00
  WS02004411WS02004412 CONDUIT    784.69     0  03:04      1.13    1.11    0.83
  WS02004401WS02004402 CONDUIT    787.69     0  03:03      1.00    0.95    1.00
  WS02004413WS02003067 CONDUIT    784.57     0  03:05      1.37    0.34    0.68
  WS02004412WS02004413 CONDUIT    784.49     0  03:05      1.06    0.53    0.89
  WS02004410WS02004411 CONDUIT    785.25     0  03:04      1.12    1.07    0.84
  WS02004409WS02004410 CONDUIT    786.33     0  03:04      1.12    1.02    0.84
  WS02004407WS02004409 CONDUIT    787.77     0  03:03      1.61    0.28    0.60
  WS02004406WS02004407 CONDUIT    788.01     0  03:03      1.38    0.35    0.68
  WS02004405WS02004406 CONDUIT    787.98     0  03:03      1.00    1.55    1.00
  WS02004404WS02004405 CONDUIT    787.92     0  03:03      1.00    7.72    1.00
  WS02004403WS02004404 CONDUIT    787.75     0  03:03      1.00    0.57    1.00
  WS02004402WS02004403 CONDUIT    787.72     0  03:03      1.00    1.13    1.00
  WS02004139WS02001211 CONDUIT    285.32     0  02:08      0.69    0.36    0.53
  WS02004138WS02004139 CONDUIT    285.00     0  01:42      2.94    0.06    0.38
  WS02003067WS02003066 CONDUIT    784.99     0  03:05      1.49    0.25    0.47
  WS02001213WS02003059 CONDUIT    292.72     0  02:00      0.64    0.48    0.75
  WS02001212WS02001213 CONDUIT    292.72     0  02:07      1.19    0.45    0.43
  WS02001211WS02001212 CONDUIT    292.68     0  02:08      0.67    0.22    0.59
  WS02003072WS02003073 CONDUIT    991.39     0  03:07      1.76    2.14    0.50
  WS02003069WS02003072 CONDUIT    991.39     0  03:06      1.65    0.48    0.52
  WS02003060WS02003069 CONDUIT    991.31     0  03:06      1.89    0.39    0.47
  WS02003059WS02003060 CONDUIT    292.85     0  01:59      0.82    0.19    0.66
  HS02004901HS02004770 CONDUIT     32.24     0  03:01      0.09    0.12    0.50
  HS02004876HS02004881 CONDUIT    119.33     0  03:01      1.17    1.27    0.15
  HS02004870HS02004876 CONDUIT     96.13     0  03:01      0.79    0.06    0.17
  HS02004842HS02004848 CONDUIT     15.11     0  03:01      0.07    0.01    0.33
  HS02004837HS02004842 CONDUIT     16.10     0  03:03      0.41    0.01    0.34
  HS02004830HS02004837 CONDUIT     61.24     0  03:01      0.66    0.06    0.13
  HS02004824HS02004830 CONDUIT     60.79     0  03:01      0.63    0.08    0.15
  HS02004817HS02004824 CONDUIT    117.39     0  03:02      0.30    0.05    0.56
  HS02004770HS02004777 CONDUIT    159.99     0  03:01      0.45    0.29    0.51
  HS02004799HS02004480 CONDUIT    387.39     0  03:01      1.00    0.49    0.56
  HS02004792HS02004799 CONDUIT    353.07     0  03:01      1.12    0.22    0.45
  HS02004788HS02004792 CONDUIT    202.14     0  03:02      1.22    0.13    0.24
  HS02004785HS02004788 CONDUIT    156.68     0  03:02      0.85    1.18    0.26
  HS02004777HS02004785 CONDUIT    157.13     0  03:01      0.53    0.19    0.42
  HS02004480HS02004478 CONDUIT    456.76     0  03:01      1.47    1.92    0.44
  HS02004479HS02004480 CONDUIT     74.08     0  03:02      0.22    0.07    0.53
  HS02004862HS02004870 CONDUIT     73.11     0  03:01      0.77    0.08    0.14
  HS02004848HS02004852 CONDUIT     35.11     0  03:01      0.52    0.04    0.10
  HS02004856HS02004862 CONDUIT     51.23     0  03:01      0.58    0.05    0.13
  HS02004852HS02004856 CONDUIT     35.03     0  03:02      0.32    0.04    0.16
  HS02004802HS02004478 CONDUIT    160.69     0  03:04      0.54    0.14    0.45
  HS02004478WS02006287 CONDUIT    609.84     0  03:02      2.03    0.17    0.33
  HS02004817HS02004807 CONDUIT    120.81     0  03:04      0.24    0.07    0.73
  HS02004807HS02004802 CONDUIT    156.92     0  03:03      0.45    0.30    0.51
  YS02001759YS02001757 CONDUIT    765.59     0  02:55      0.97    0.54    1.00
  YS02001762YS02001759 CONDUIT    379.46     0  02:54      0.48    0.44    1.00
  YS02001765YS02001762 CONDUIT    380.69     0  02:54      0.48    0.36    1.00
  YS02001770YS02001767 CONDUIT    379.14     0  02:54      0.48    1.50    1.00
  YS02001774YS02001770 CONDUIT    389.75     0  03:31      0.50    0.25    1.00
  YS02001779YS02001774 CONDUIT    390.26     0  03:31      0.50    0.20    1.00
  YS02001649YS02001757 CONDUIT    987.58     0  02:50      1.26    0.60    1.00
  YS02001767YS02001765 CONDUIT    379.56     0  02:54      0.48    0.48    1.00
  YS02006561YS02001783 CONDUIT   1056.34     0  02:52      2.26    0.55    1.00
  YS02001783YS02001784 CONDUIT   1056.31     0  02:52      2.10    1.46    1.00
  YS02001784YS02001785 CONDUIT   1057.10     0  02:52      2.11    2.46    1.00
  YS02001788YS02001790 CONDUIT   1028.93     0  02:52      2.53    0.76    1.00
  YS02001790YS02001791 CONDUIT   1065.51     0  02:51      3.16    1.16    1.00
  YS02001791YS02001793 CONDUIT    986.74     0  02:53      6.12    0.42    1.00
  YS02001910YS02001907 CONDUIT    671.56     0  02:56      0.86    0.38    1.00
  YS02001786YS02001788 CONDUIT   1050.82     0  02:53      2.35    2.02    1.00
  YS02001915YS02001910 CONDUIT    671.51     0  02:56      0.85    0.33    1.00
  YS02001918YS02001915 CONDUIT    385.61     0  02:56      0.49    0.21    1.00
  YS02001923YS02001920 CONDUIT    382.54     0  02:56      0.71    0.17    1.00
  YS02001926YS02001923 CONDUIT    317.07     0  02:56      0.82    0.45    1.00
  YS02001929YS02001926 CONDUIT    255.55     0  02:55      0.87    0.12    1.00
  YS02001920YS02001918 CONDUIT    385.64     0  02:56      0.70    0.37    1.00
  YS02001629YS02163301 CONDUIT    221.82     0  02:49      0.28    0.27    1.00
  YS02001619YS02001622 CONDUIT    338.27     0  03:01      0.60    0.50    1.00
  YS02001622YS02001625 CONDUIT    338.06     0  03:01      0.43    0.18    1.00
  YS02001625YS02001629 CONDUIT    221.44     0  02:49      0.28    0.11    1.00
  YS02163301YS02001633 CONDUIT    222.07     0  02:49      0.28    0.21    1.00
  YS02163601YS02164001 CONDUIT    466.12     0  02:50      0.59    0.41    1.00
  YS02164001YS02001641 CONDUIT    466.12     0  02:50      0.59    0.64    1.00
  YS02001641YS02001644 CONDUIT    466.12     0  02:50      0.59    1.51    1.00
  YS02001647YS02001649 CONDUIT    711.49     0  02:50      0.91    0.38    1.00
  YS02006553YS02006556 CONDUIT    676.53     0  02:52      0.86    0.58    1.00
  YS02006556YS02006558 CONDUIT    676.86     0  02:52      0.86    0.53    1.00
  YSB6556YSB1171       CONDUIT     41.33     0  03:02      0.13    0.04    0.80
  YS02001907YS02006553 CONDUIT    676.60     0  02:52      0.75    0.80    1.00
  YS02006558YS02006561 CONDUIT   1071.89     0  02:53      3.79    2.37    1.00
  YS02001633YS02163601 CONDUIT    466.03     0  02:50      0.59    0.49    1.00
  YS02001644YS02001647 CONDUIT    711.58     0  02:50      0.91    0.42    1.00
  YS02001745YS02001748 CONDUIT    654.89     0  02:46      1.48    0.25    0.94
  YS02001748YS02001751 CONDUIT    398.78     0  03:01      1.03    0.20    1.00
  YS02001751YS02001754 CONDUIT    398.78     0  03:01      0.84    0.19    1.00
  YS02001754YS02001757 CONDUIT    399.03     0  03:01      0.51    0.16    1.00
  YS02001882YS02001884 CONDUIT     21.11     0  02:49      0.08    0.02    1.00
  YS02001884YS02001887 CONDUIT     28.59     0  02:47      0.05    0.04    1.00
  YS02001890YS02001895 CONDUIT    516.76     0  03:02      0.66    0.24    1.00
  YS02001895YS02001898 CONDUIT    516.76     0  03:03      0.66    0.90    1.00
  YS02001898YS02001901 CONDUIT    516.86     0  03:02      0.66    0.33    1.00
  YS02001901YS02001904 CONDUIT    516.76     0  03:03      0.66    0.80    1.00
  YS02001904YS02001907 CONDUIT    516.80     0  03:02      0.66    0.18    1.00
  YS02001887YS02001890 CONDUIT    623.34     0  03:01      0.79    1.07    1.00
  YS02001652YS02001649 CONDUIT    485.15     0  03:01      0.62    0.24    1.00
  YS02001655YS02001652 CONDUIT    485.00     0  03:01      0.89    0.24    1.00
  YS02001658YS02001655 CONDUIT    484.97     0  03:01      1.18    0.21    1.00
  YS02001661YS02001658 CONDUIT    630.09     0  02:42      1.56    0.25    1.00
  YS02001664YS02001661 CONDUIT    735.91     0  02:55      1.60    0.23    0.73
  YSB1154YSB6556       CONDUIT     41.77     0  03:01      0.19    0.08    0.69
  YSB1174YSB1171       CONDUIT     34.49     0  03:01      0.10    0.05    0.81
  YSB1171HS02004479    CONDUIT     72.19     0  03:02      0.54    0.05    0.65
  HS02004881HS02006253 CONDUIT    131.62     0  03:01      1.58    0.03    0.25
  YS02001793JiankangQianchi CONDUIT    988.06     0  02:53     12.07    0.08    1.00
  YS02001757CaochengTiaoxuchi CONDUIT   1933.38     0  02:52      2.71    0.85    1.00
  WSF200WS02003060     CONDUIT    785.53     0  03:05      1.99    0.17    0.38
  1                    CONDUIT    993.11     0  03:08      3.32    0.35    0.41
  2                    CONDUIT    152.53     0  03:03      5.44    0.37    0.42
  3                    CONDUIT    597.65     0  00:00     10.05    0.95    0.86
  4                    CONDUIT      0.00     0  00:00      0.00    0.00    0.00
  CC-Pump-1            PUMP         0.00     0  00:00              0.00
  CC-Pump-2            PUMP       200.00     0  02:06              1.00
  JK-Pump-1            PUMP       300.00     0  00:00              1.00
  JK-Pump-2            PUMP       300.00     0  00:00              1.00
  XR-Pump-1            PUMP        95.00     0  00:00              1.00
  XR-Pump-2            PUMP         0.00     0  00:00              0.00
  XR-Pump-3            PUMP        95.00     0  00:00              1.00
  XR-Pump-4            PUMP        95.00     0  00:30              1.00
  
  
  ***************************
  Flow Classification Summary
  ***************************
  
  -------------------------------------------------------------------------------------
                      Adjusted    ---------- Fraction of Time in Flow Class ---------- 
                       /Actual         Up    Down  Sub   Sup   Up    Down  Norm  Inlet 
  Conduit               Length    Dry  Dry   Dry   Crit  Crit  Crit  Crit  Ltd   Ctrl  
  -------------------------------------------------------------------------------------
  WS02003066WSF200        1.00   0.06  0.00  0.00  0.00  0.94  0.00  0.00  0.58  0.00
  WS02006287WS02006284    1.00   0.03  0.01  0.00  0.58  0.38  0.00  0.00  0.67  0.00
  WS02006284WS02006280    1.00   0.04  0.00  0.00  0.00  0.00  0.00  0.96  0.00  0.00
  WS02006280WS02006229    1.00   0.04  0.00  0.00  0.00  0.00  0.00  0.96  0.00  0.00
  WS02006229WS02006228    1.00   0.00  0.00  0.00  0.98  0.00  0.00  0.02  0.00  0.00
  WS02006256WS02006235    1.00   0.00  0.00  0.00  1.00  0.00  0.00  0.00  0.00  0.00
  WS02006253WS02006251    1.00   0.02  0.01  0.00  0.97  0.00  0.00  0.00  0.00  0.00
  WS02006252WS02006251    1.00   0.07  0.00  0.00  0.00  0.00  0.93  0.00  0.00  0.00
  WS02006251WS02006249    1.00   0.00  0.00  0.00  1.00  0.00  0.00  0.00  0.24  0.00
  WS02006249WS02006248    1.00   0.00  0.02  0.00  0.93  0.00  0.05  0.00  0.00  0.00
  WS02006248WS02006247    1.00   0.02  0.00  0.00  0.97  0.00  0.00  0.01  0.13  0.00
  WS02006247WS02006245    1.00   0.02  0.00  0.00  0.97  0.00  0.00  0.02  0.00  0.00
  WS02006245WS02006243    1.00   0.01  0.00  0.00  0.95  0.00  0.00  0.04  0.01  0.00
  WS02006243WS02006242    1.00   0.01  0.00  0.00  0.99  0.00  0.00  0.00  0.21  0.00
  WS02006242WS02006240    1.00   0.00  0.00  0.00  1.00  0.00  0.00  0.00  0.00  0.00
  WS02006240WS02006239    1.00   0.00  0.00  0.00  0.96  0.00  0.00  0.03  0.02  0.00
  WS02006239WS02006238    1.00   0.00  0.00  0.00  1.00  0.00  0.00  0.00  0.00  0.00
  WS02006238WS02006235    1.00   0.00  0.00  0.00  1.00  0.00  0.00  0.00  0.00  0.00
  WS02006235WS02006234    1.00   0.00  0.00  0.00  0.96  0.00  0.04  0.00  0.00  0.00
  WS02006234WS02006232    1.00   0.00  0.00  0.00  1.00  0.00  0.00  0.00  0.13  0.00
  WS02006232WS02006231    1.00   0.00  0.00  0.00  0.99  0.00  0.01  0.00  0.00  0.00
  WS02006231WS02006230    1.00   0.00  0.00  0.00  0.57  0.00  0.43  0.00  0.00  0.00
  WS02006230WS02006229    1.00   0.00  0.00  0.00  0.98  0.00  0.00  0.02  0.01  0.00
  WS02006228WS02006109    1.00   0.00  0.00  0.00  1.00  0.00  0.00  0.00  0.00  0.00
  WS02006116WS02004401    1.00   0.02  0.00  0.00  0.98  0.00  0.00  0.00  0.00  0.00
  WS02006115WS02006116    1.00   0.02  0.00  0.00  0.97  0.00  0.00  0.01  0.01  0.00
  WS02006113WS02006111    1.00   0.02  0.00  0.00  0.02  0.96  0.00  0.00  0.09  0.00
  WS02006112WS02006115    1.00   0.02  0.00  0.00  0.98  0.00  0.00  0.00  0.00  0.00
  WS02006111WS02006112    1.00   0.02  0.00  0.00  0.98  0.00  0.00  0.00  0.89  0.00
  WS02006110WS02006113    1.00   0.01  0.00  0.00  0.98  0.00  0.00  0.00  0.00  0.00
  WS02006109WS02006110    1.00   0.00  0.01  0.00  0.98  0.00  0.00  0.00  0.00  0.00
  WS02004411WS02004412    1.00   0.05  0.00  0.00  0.95  0.00  0.00  0.00  0.00  0.00
  WS02004401WS02004402    1.00   0.02  0.00  0.00  0.98  0.00  0.00  0.00  0.00  0.00
  WS02004413WS02003067    1.00   0.05  0.01  0.00  0.00  0.00  0.94  0.00  0.00  0.00
  WS02004412WS02004413    1.00   0.05  0.00  0.00  0.95  0.00  0.00  0.00  0.01  0.00
  WS02004410WS02004411    1.00   0.05  0.00  0.00  0.95  0.00  0.00  0.00  0.00  0.00
  WS02004409WS02004410    1.00   0.05  0.00  0.00  0.95  0.00  0.00  0.00  0.00  0.00
  WS02004407WS02004409    1.00   0.05  0.00  0.00  0.95  0.00  0.00  0.00  0.79  0.00
  WS02004406WS02004407    1.00   0.00  0.04  0.00  0.95  0.00  0.00  0.00  0.00  0.00
  WS02004405WS02004406    1.00   0.00  0.00  0.00  1.00  0.00  0.00  0.00  0.02  0.00
  WS02004404WS02004405    1.00   0.00  0.00  0.00  1.00  0.00  0.00  0.00  0.00  0.00
  WS02004403WS02004404    1.00   0.00  0.02  0.00  0.98  0.00  0.00  0.00  0.02  0.00
  WS02004402WS02004403    1.00   0.02  0.00  0.00  0.98  0.00  0.00  0.00  0.00  0.00
  WS02004139WS02001211    1.00   0.00  0.00  0.00  0.99  0.00  0.01  0.00  0.00  0.00
  WS02004138WS02004139    1.00   0.00  0.00  0.00  0.99  0.01  0.00  0.00  1.00  0.00
  WS02003067WS02003066    1.00   0.06  0.01  0.00  0.94  0.00  0.00  0.00  0.00  0.00
  WS02001213WS02003059    1.00   0.00  0.00  0.00  0.99  0.00  0.00  0.00  0.00  0.00
  WS02001212WS02001213    1.00   0.01  0.00  0.00  0.92  0.00  0.07  0.00  0.00  0.00
  WS02001211WS02001212    1.00   0.00  0.01  0.00  0.99  0.00  0.00  0.00  0.00  0.00
  WS02003072WS02003073    1.00   0.00  0.00  0.00  0.00  0.00  0.00  1.00  0.00  0.00
  WS02003069WS02003072    1.00   0.00  0.00  0.00  0.99  0.01  0.00  0.00  0.23  0.00
  WS02003060WS02003069    1.00   0.00  0.00  0.00  0.99  0.01  0.00  0.00  0.14  0.00
  WS02003059WS02003060    1.00   0.00  0.00  0.00  0.99  0.01  0.00  0.00  0.01  0.00
  HS02004901HS02004770    1.00   0.03  0.00  0.00  0.97  0.00  0.00  0.00  0.01  0.00
  HS02004876HS02004881    1.00   0.02  0.00  0.00  0.87  0.12  0.00  0.00  0.00  0.00
  HS02004870HS02004876    1.00   0.01  0.00  0.00  0.99  0.00  0.00  0.00  0.95  0.00
  HS02004842HS02004848    1.00   0.00  0.03  0.00  0.97  0.00  0.00  0.00  0.58  0.00
  HS02004837HS02004842    1.00   0.00  0.00  0.00  0.99  0.01  0.00  0.00  0.11  0.00
  HS02004830HS02004837    1.00   0.00  0.00  0.00  1.00  0.00  0.00  0.00  0.99  0.00
  HS02004824HS02004830    1.00   0.00  0.00  0.00  1.00  0.00  0.00  0.00  0.01  0.00
  HS02004817HS02004824    1.00   0.00  0.00  0.00  1.00  0.00  0.00  0.00  0.98  0.00
  HS02004770HS02004777    1.00   0.00  0.03  0.00  0.97  0.00  0.00  0.00  0.04  0.00
  HS02004799HS02004480    1.00   0.00  0.02  0.00  0.96  0.00  0.02  0.00  0.00  0.00
  HS02004792HS02004799    1.00   0.00  0.00  0.00  0.99  0.01  0.00  0.00  0.98  0.00
  HS02004788HS02004792    1.00   0.00  0.00  0.00  0.99  0.01  0.00  0.00  0.98  0.00
  HS02004785HS02004788    1.00   0.00  0.00  0.00  1.00  0.00  0.00  0.00  0.00  0.00
  HS02004777HS02004785    1.00   0.00  0.00  0.00  1.00  0.00  0.00  0.00  0.15  0.00
  HS02004480HS02004478    1.00   0.04  0.00  0.00  0.67  0.00  0.00  0.30  0.00  0.00
  HS02004479HS02004480    1.00   0.02  0.00  0.00  0.98  0.00  0.00  0.00  0.13  0.00
  HS02004862HS02004870    1.00   0.00  0.00  0.00  1.00  0.00  0.00  0.00  0.06  0.00
  HS02004848HS02004852    1.00   0.03  0.00  0.00  0.97  0.00  0.00  0.00  0.64  0.00
  HS02004856HS02004862    1.00   0.00  0.05  0.00  0.95  0.00  0.00  0.00  0.79  0.00
  HS02004852HS02004856    1.00   0.03  0.00  0.00  0.96  0.00  0.00  0.00  0.81  0.00
  HS02004802HS02004478    1.00   0.04  0.00  0.00  0.96  0.00  0.00  0.00  0.03  0.00
  HS02004478WS02006287    1.00   0.04  0.00  0.00  0.72  0.24  0.00  0.00  0.66  0.00
  HS02004817HS02004807    1.00   0.00  0.03  0.00  0.97  0.00  0.00  0.00  0.01  0.00
  HS02004807HS02004802    1.00   0.03  0.00  0.00  0.96  0.00  0.00  0.00  0.00  0.00
  YS02001759YS02001757    1.00   0.00  0.00  0.00  1.00  0.00  0.00  0.00  0.17  0.00
  YS02001762YS02001759    1.00   0.00  0.00  0.00  1.00  0.00  0.00  0.00  0.04  0.00
  YS02001765YS02001762    1.00   0.00  0.00  0.00  1.00  0.00  0.00  0.00  0.17  0.00
  YS02001770YS02001767    1.00   0.00  0.00  0.00  1.00  0.00  0.00  0.00  0.00  0.00
  YS02001774YS02001770    1.00   0.00  0.03  0.00  0.96  0.00  0.00  0.00  0.04  0.00
  YS02001779YS02001774    1.00   0.00  0.00  0.00  1.00  0.00  0.00  0.00  0.22  0.00
  YS02001649YS02001757    1.00   0.00  0.00  0.00  1.00  0.00  0.00  0.00  0.17  0.00
  YS02001767YS02001765    1.00   0.00  0.00  0.00  1.00  0.00  0.00  0.00  0.01  0.00
  YS02006561YS02001783    1.00   0.05  0.00  0.00  0.31  0.64  0.00  0.00  0.47  0.00
  YS02001783YS02001784    1.00   0.00  0.05  0.00  0.95  0.00  0.00  0.00  0.01  0.00
  YS02001784YS02001785    1.00   0.00  0.00  0.00  1.00  0.00  0.00  0.00  0.21  0.00
  YS02001788YS02001790    1.00   0.00  0.00  0.00  0.33  0.67  0.00  0.00  0.46  0.00
  YS02001790YS02001791    1.00   0.00  0.00  0.00  0.32  0.68  0.00  0.00  0.49  0.00
  YS02001791YS02001793    1.00   0.00  0.00  0.00  0.34  0.66  0.00  0.00  0.02  0.00
  YS02001910YS02001907    1.00   0.00  0.00  0.00  0.98  0.00  0.00  0.02  0.13  0.00
  YS02001786YS02001788    1.00   0.00  0.00  0.00  0.33  0.67  0.00  0.00  0.00  0.00
  YS02001915YS02001910    1.00   0.00  0.00  0.00  0.99  0.01  0.00  0.00  0.19  0.00
  YS02001918YS02001915    1.00   0.00  0.01  0.00  0.99  0.00  0.00  0.00  0.57  0.00
  YS02001923YS02001920    1.00   0.00  0.00  0.00  1.00  0.00  0.00  0.00  0.83  0.00
  YS02001926YS02001923    1.00   0.00  0.03  0.00  0.18  0.00  0.80  0.00  0.00  0.00
  YS02001929YS02001926    1.00   0.00  0.03  0.00  0.97  0.00  0.00  0.00  0.76  0.00
  YS02001920YS02001918    1.00   0.00  0.01  0.00  0.99  0.00  0.00  0.00  0.00  0.00
  YS02001629YS02163301    1.00   0.04  0.00  0.00  0.96  0.00  0.00  0.00  0.00  0.00
  YS02001619YS02001622    1.00   0.03  0.00  0.00  0.97  0.00  0.00  0.00  0.00  0.00
  YS02001622YS02001625    1.00   0.03  0.00  0.00  0.97  0.00  0.00  0.00  0.08  0.00
  YS02001625YS02001629    1.00   0.03  0.02  0.00  0.93  0.00  0.02  0.00  0.00  0.00
  YS02163301YS02001633    1.00   0.00  0.04  0.00  0.96  0.00  0.00  0.00  0.00  0.00
  YS02163601YS02164001    1.00   0.00  0.03  0.00  0.97  0.00  0.00  0.00  0.00  0.00
  YS02164001YS02001641    1.00   0.01  0.02  0.00  0.97  0.00  0.00  0.00  0.06  0.00
  YS02001641YS02001644    1.00   0.00  0.01  0.00  0.99  0.00  0.00  0.00  0.00  0.00
  YS02001647YS02001649    1.00   0.00  0.05  0.00  0.95  0.00  0.00  0.00  0.01  0.00
  YS02006553YS02006556    1.00   0.02  0.00  0.00  0.98  0.00  0.00  0.00  0.03  0.00
  YS02006556YS02006558    1.00   0.00  0.00  0.00  1.00  0.00  0.00  0.00  0.00  0.00
  YSB6556YSB1171          1.00   0.02  0.01  0.00  0.97  0.00  0.00  0.00  0.00  0.00
  YS02001907YS02006553    1.00   0.00  0.01  0.00  0.98  0.00  0.00  0.00  0.00  0.00
  YS02006558YS02006561    1.00   0.05  0.00  0.00  0.20  0.75  0.00  0.00  0.44  0.00
  YS02001633YS02163601    1.00   0.00  0.01  0.00  0.99  0.00  0.00  0.00  0.16  0.00
  YS02001644YS02001647    1.00   0.00  0.05  0.00  0.95  0.00  0.00  0.00  0.00  0.00
  YS02001745YS02001748    1.00   0.00  0.00  0.00  0.89  0.01  0.00  0.10  0.04  0.00
  YS02001748YS02001751    1.00   0.00  0.00  0.00  0.97  0.03  0.00  0.00  0.15  0.00
  YS02001751YS02001754    1.00   0.00  0.00  0.00  0.95  0.00  0.00  0.05  0.02  0.00
  YS02001754YS02001757    1.00   0.00  0.00  0.00  0.99  0.01  0.00  0.00  0.21  0.00
  YS02001882YS02001884    1.00   0.04  0.00  0.00  0.96  0.00  0.00  0.00  0.00  0.00
  YS02001884YS02001887    1.00   0.02  0.01  0.00  0.97  0.00  0.00  0.00  0.00  0.00
  YS02001890YS02001895    1.00   0.00  0.04  0.00  0.96  0.00  0.00  0.00  0.00  0.00
  YS02001895YS02001898    1.00   0.04  0.00  0.00  0.95  0.00  0.01  0.00  0.00  0.00
  YS02001898YS02001901    1.00   0.04  0.00  0.00  0.96  0.00  0.00  0.00  0.03  0.00
  YS02001901YS02001904    1.00   0.04  0.00  0.00  0.96  0.00  0.00  0.00  0.00  0.00
  YS02001904YS02001907    1.00   0.00  0.04  0.00  0.96  0.00  0.00  0.00  0.00  0.00
  YS02001887YS02001890    1.00   0.00  0.00  0.00  0.98  0.00  0.01  0.00  0.00  0.00
  YS02001652YS02001649    1.00   0.00  0.00  0.00  1.00  0.00  0.00  0.00  0.19  0.00
  YS02001655YS02001652    1.00   0.00  0.00  0.00  0.95  0.00  0.00  0.05  0.03  0.00
  YS02001658YS02001655    1.00   0.00  0.04  0.00  0.93  0.03  0.00  0.00  0.13  0.00
  YS02001661YS02001658    1.00   0.04  0.00  0.00  0.89  0.07  0.00  0.00  0.08  0.00
  YS02001664YS02001661    1.00   0.03  0.00  0.00  0.87  0.09  0.00  0.00  0.22  0.00
  YSB1154YSB6556          1.00   0.03  0.00  0.00  0.97  0.00  0.00  0.00  0.02  0.00
  YSB1174YSB1171          1.00   0.02  0.01  0.00  0.97  0.00  0.00  0.00  0.00  0.00
  YSB1171HS02004479       1.00   0.02  0.00  0.00  0.98  0.00  0.00  0.00  0.11  0.00
  HS02004881HS02006253    1.00   0.02  0.00  0.00  0.92  0.00  0.00  0.05  0.74  0.00
  YS02001793JiankangQianchi    1.00   0.00  0.00  0.00  0.61  0.39  0.00  0.00  0.24  0.00
  YS02001757CaochengTiaoxuchi    1.00   0.00  0.07  0.00  0.91  0.02  0.00  0.00  0.00  0.00
  WSF200WS02003060        1.00   0.00  0.06  0.00  0.53  0.41  0.00  0.00  0.03  0.00
  1                       1.00   0.00  0.00  0.00  0.00  1.00  0.00  0.00  0.35  0.00
  2                       1.00   0.81  0.00  0.00  0.00  0.19  0.00  0.00  0.02  0.00
  3                       1.00   0.07  0.00  0.00  0.00  0.93  0.00  0.00  0.00  0.00
  4                       1.00   1.00  0.00  0.00  0.00  0.00  0.00  0.00  0.00  0.00
  
  
  *************************
  Conduit Surcharge Summary
  *************************
  
  ----------------------------------------------------------------------------
                                                           Hours        Hours 
                         --------- Hours Full --------   Above Full   Capacity
  Conduit                Both Ends  Upstream  Dnstream   Normal Flow   Limited
  ----------------------------------------------------------------------------
  WS02006229WS02006228        1.57      1.65      1.57      5.75         1.57
  WS02006256WS02006235        5.97      5.97      6.93      4.59         0.01
  WS02006249WS02006248        0.01      0.01      0.01      5.69         0.01
  WS02006247WS02006245        0.03      0.06      0.03      5.75         0.03
  WS02006245WS02006243        0.09      0.09      0.37      0.01         0.01
  WS02006243WS02006242        0.44      0.44      1.01      0.01         0.01
  WS02006242WS02006240        0.88      0.88      1.10      0.01         0.01
  WS02006240WS02006239        0.93      0.93      1.01      0.01         0.01
  WS02006239WS02006238        1.14      1.14      1.19      0.01         0.01
  WS02006238WS02006235        1.18      1.18      1.26      0.01         0.01
  WS02006235WS02006234        1.03      1.03      1.15      6.00         0.01
  WS02006234WS02006232        1.10      1.10      1.35      0.01         0.01
  WS02006232WS02006231        0.86      0.86      1.35      0.01         0.01
  WS02006231WS02006230        0.69      0.69      0.90      5.96         0.01
  WS02006230WS02006229        2.43      5.50      2.43      6.04         2.43
  WS02006228WS02006109        1.60      1.90      1.60      5.88         1.60
  WS02006116WS02004401        0.30      0.30      0.31      0.21         0.22
  WS02006115WS02006116        0.12      0.12      0.13      0.04         0.05
  WS02006112WS02006115        0.09      0.09      1.18      0.01         0.01
  WS02006111WS02006112        0.01      0.01      5.75      0.01         0.01
  WS02006110WS02006113        0.01      0.01      1.75      0.01         0.01
  WS02006109WS02006110        1.06      1.06      1.90      1.06         0.01
  WS02004411WS02004412        0.01      0.01      0.01      0.28         0.01
  WS02004401WS02004402        0.31      0.31      0.36      0.01         0.01
  WS02004410WS02004411        0.01      0.01      0.01      0.19         0.01
  WS02004409WS02004410        0.01      0.01      0.01      0.06         0.01
  WS02004406WS02004407        0.01      0.01      0.60      0.01         0.01
  WS02004405WS02004406        0.60      0.68      0.60      1.12         0.60
  WS02004404WS02004405        0.68      0.76      0.68      5.89         0.68
  WS02004403WS02004404        0.38      0.38      0.76      0.01         0.01
  WS02004402WS02004403        0.36      0.36      0.38      0.30         0.29
  WS02003072WS02003073        0.01      0.01      0.01      5.71         0.01
  HS02004876HS02004881        0.01      0.01      0.01      0.17         0.01
  HS02004785HS02004788        0.01      0.01      0.01      0.10         0.01
  HS02004480HS02004478        0.01      0.01      0.01      0.52         0.01
  YS02001759YS02001757        5.54      5.54      5.62      0.01         0.01
  YS02001762YS02001759        5.51      5.51      5.54      0.01         0.01
  YS02001765YS02001762        5.49      5.49      5.51      0.01         0.01
  YS02001770YS02001767        5.46      5.47      5.47      0.31         0.71
  YS02001774YS02001770        5.45      5.45      5.50      0.01         0.01
  YS02001779YS02001774        5.28      5.28      5.50      0.01         0.01
  YS02001649YS02001757        5.52      5.52      5.62      0.01         0.01
  YS02001767YS02001765        5.47      5.47      5.49      0.01         0.01
  YS02006561YS02001783        0.84      0.84      1.37      0.01         0.01
  YS02001783YS02001784        1.35      1.37      1.41      1.35         1.16
  YS02001784YS02001785        1.28      1.41      1.28      2.22         1.28
  YS02001788YS02001790        1.27      1.27      1.53      0.01         0.01
  YS02001790YS02001791        1.53      1.53      1.56      0.77         0.70
  YS02001791YS02001793        1.56      1.56      1.97      0.01         0.01
  YS02001910YS02001907        1.20      1.20      1.66      0.01         0.01
  YS02001786YS02001788        1.27      1.28      1.27      1.94         1.26
  YS02001915YS02001910        0.98      0.98      1.20      0.01         0.01
  YS02001918YS02001915        0.74      0.74      0.98      0.01         0.01
  YS02001923YS02001920        0.55      0.55      0.77      0.01         0.01
  YS02001926YS02001923        0.01      0.01      0.01      0.01         0.01
  YS02001929YS02001926        0.01      0.01      0.01      0.01         0.01
  YS02001920YS02001918        0.74      0.74      0.77      0.01         0.01
  YS02001629YS02163301        5.45      5.45      5.46      0.01         0.01
  YS02001619YS02001622        5.14      5.14      5.16      0.01         0.01
  YS02001622YS02001625        5.16      5.16      5.34      0.01         0.01
  YS02001625YS02001629        5.15      5.15      5.34      0.01         0.01
  YS02163301YS02001633        5.46      5.46      5.49      0.01         0.01
  YS02163601YS02164001        5.49      5.49      5.52      0.01         0.01
  YS02164001YS02001641        5.49      5.49      5.50      0.01         0.02
  YS02001641YS02001644        5.50      5.50      5.50      1.49         1.42
  YS02001647YS02001649        5.30      5.30      5.52      0.01         0.01
  YS02006553YS02006556        1.41      1.41      1.71      0.01         0.01
  YS02006556YS02006558        1.54      1.54      1.79      0.01         0.01
  YS02001907YS02006553        2.24      2.24      2.45      0.01         0.01
  YS02006558YS02006561        1.01      1.38      1.01      2.09         1.01
  YS02001633YS02163601        5.48      5.48      5.52      0.01         0.01
  YS02001644YS02001647        5.30      5.30      5.50      0.01         0.01
  YS02001745YS02001748        0.01      0.01      5.03      0.01         0.01
  YS02001748YS02001751        5.05      5.05      5.13      0.01         0.01
  YS02001751YS02001754        5.13      5.13      5.29      0.01         0.01
  YS02001754YS02001757        5.30      5.30      5.62      0.01         0.01
  YS02001882YS02001884        0.99      0.99      1.03      0.01         0.01
  YS02001884YS02001887        1.09      1.09      1.12      0.01         0.01
  YS02001890YS02001895        0.96      0.96      1.22      0.01         0.01
  YS02001895YS02001898        0.94      0.94      0.96      0.01         0.01
  YS02001898YS02001901        0.97      0.97      1.08      0.01         0.01
  YS02001901YS02001904        1.06      1.06      1.08      0.01         0.01
  YS02001904YS02001907        1.06      1.06      1.74      0.01         0.01
  YS02001887YS02001890        1.15      1.15      1.18      0.07         0.01
  YS02001652YS02001649        5.31      5.31      5.52      0.01         0.01
  YS02001655YS02001652        5.15      5.15      5.30      0.01         0.01
  YS02001658YS02001655        5.05      5.05      5.15      0.01         0.01
  YS02001661YS02001658        0.23      0.23      5.05      0.01         0.01
  YS02001664YS02001661        0.01      0.01      1.31      0.01         0.01
  YS02001793JiankangQianchi        1.83      1.83      3.11      0.01         0.01
  YS02001757CaochengTiaoxuchi        4.84      4.84      5.62      0.01         0.01
  3                           0.01      0.01      0.01      0.01         0.01
  
  
  ***************
  Pumping Summary
  ***************
  
  ---------------------------------------------------------------------------------------------------------
                                                  Min       Avg       Max     Total     Power    % Time Off
                        Percent   Number of      Flow      Flow      Flow    Volume     Usage    Pump Curve
  Pump                 Utilized   Start-Ups       LPS       LPS       LPS  10^6 ltr     Kw-hr    Low   High
  ---------------------------------------------------------------------------------------------------------
  CC-Pump-1                0.00           0      0.00      0.00      0.00     0.000      0.00    0.0    0.0
  CC-Pump-2               74.41           1      0.00    199.07    200.00     4.162      4.75    0.0   10.5
  JK-Pump-1               65.95           8      0.00    160.75    300.00     2.489     27.68    0.0    0.0
  JK-Pump-2              100.00           2      0.00    229.76    300.00     5.072     58.31    0.0    0.0
  XR-Pump-1               70.20          10      0.00     60.12     95.00     1.226      8.10    0.0    0.0
  XR-Pump-2                0.00           0      0.00      0.00      0.00     0.000      0.00    0.0    0.0
  XR-Pump-3               95.74           4      0.00     84.42     95.00     2.280     14.15    0.0    0.0
  XR-Pump-4               95.74           3      0.00     84.05     95.00     2.251     13.22    0.0    0.0
  

  Analysis begun on:  Thu Jan  6 16:30:11 2022
  Analysis ended on:  Thu Jan  6 16:30:14 2022
  Total elapsed time: 00:00:03