
  EPA STORM WATER MANAGEMENT MODEL - VERSION 5.1 (Build 5.3.0.dev0)
  --------------------------------------------------------------

  WARNING 04: minimum elevation drop used for Conduit WS02004404WS02004405
  WARNING 03: negative offset ignored for Link YS02001904YS02001907
  
  *********************************************************
  NOTE: The summary statistics displayed in this report are
  based on results found at every computational time step,  
  not just on results from each reporting time step.
  *********************************************************
  
  ****************
  Analysis Options
  ****************
  Flow Units ............... LPS
  Process Models:
    Rainfall/Runoff ........ YES
    RDII ................... NO
    Snowmelt ............... NO
    Groundwater ............ NO
    Flow Routing ........... YES
    Ponding Allowed ........ NO
    Water Quality .......... NO
  Infiltration Method ...... HORTON
  Flow Routing Method ...... DYNWAVE
  Surcharge Method ......... EXTRAN
  Starting Date ............ 08/28/2015 08:00:00
  Ending Date .............. 08/28/2015 15:50:00
  Antecedent Dry Days ...... 8.0
  Report Time Step ......... 00:01:00
  Wet Time Step ............ 00:01:00
  Dry Time Step ............ 00:01:00
  Routing Time Step ........ 5.00 sec
  Variable Time Step ....... YES
  Maximum Trials ........... 8
  Number of Threads ........ 4
  Head Tolerance ........... 0.001500 m
  
  
  **************************        Volume         Depth
  Runoff Quantity Continuity     hectare-m            mm
  **************************     ---------       -------
  Total Precipitation ......         7.641        16.729
  Evaporation Loss .........         0.000         0.000
  Infiltration Loss ........         1.880         4.117
  Surface Runoff ...........         4.668        10.221
  Final Storage ............         1.093         2.393
  Continuity Error (%) .....        -0.013
  
  
  **************************        Volume        Volume
  Flow Routing Continuity        hectare-m      10^6 ltr
  **************************     ---------     ---------
  Dry Weather Inflow .......         0.616         6.165
  Wet Weather Inflow .......         4.667        46.671
  Groundwater Inflow .......         0.000         0.000
  RDII Inflow ..............         0.000         0.000
  External Inflow ..........         0.102         1.024
  External Outflow .........         2.081        20.809
  Flooding Loss ............         2.784        27.844
  Evaporation Loss .........         0.000         0.000
  Exfiltration Loss ........         0.000         0.000
  Initial Stored Volume ....         0.076         0.761
  Final Stored Volume ......         0.659         6.588
  Continuity Error (%) .....        -1.136
  
  
  *************************
  Highest Continuity Errors
  *************************
  Node HS02004842 (12.71%)
  Node YS02001884 (11.82%)
  Node JK-storage (-5.30%)
  Node HS02004817 (2.32%)
  Node YSB1171 (2.18%)
  
  
  ***************************
  Time-Step Critical Elements
  ***************************
  Link WS02006252WS02006251 (48.88%)
  Link 3 (46.15%)
  
  
  ********************************
  Highest Flow Instability Indexes
  ********************************
  Link YS02163601YS02164001 (38)
  Link YS02163301YS02001633 (37)
  Link YS02001629YS02163301 (36)
  Link WS02006113WS02006111 (35)
  Link YS02001619YS02001622 (35)
  
  
  *************************
  Routing Time Step Summary
  *************************
  Minimum Time Step           :     0.07 sec
  Average Time Step           :     0.78 sec
  Maximum Time Step           :     5.00 sec
  Percent in Steady State     :    -0.00
  Average Iterations per Step :     4.22
  Percent Not Converging      :    15.57
  
  
  ***************************
  Subcatchment Runoff Summary
  ***************************
  
  ------------------------------------------------------------------------------------------------------------------------------
                            Total      Total      Total      Total     Imperv       Perv      Total       Total     Peak  Runoff
                           Precip      Runon       Evap      Infil     Runoff     Runoff     Runoff      Runoff   Runoff   Coeff
  Subcatchment                 mm         mm         mm         mm         mm         mm         mm    10^6 ltr      LPS
  ------------------------------------------------------------------------------------------------------------------------------
  sub0                      16.73       0.00       0.00       0.97      14.29       0.20      14.50        0.01     3.66   0.867
  sub1                      16.73       0.00       0.00       1.58      13.63       0.26      13.89        0.09    24.51   0.830
  sub2                      16.73       0.00       0.00       5.80       9.63       0.39      10.02        0.09    22.91   0.599
  sub3                      16.73       0.00       0.00       5.88       9.59       0.31       9.90        0.22    50.49   0.592
  sub4                      16.73       0.00       0.00       1.65      13.47       0.19      13.66        0.28    60.01   0.817
  sub5                      16.73       0.00       0.00       0.99      14.24       0.18      14.42        0.16    43.61   0.862
  sub7                      16.73       0.00       0.00       1.26      13.97       0.24      14.21        0.05    13.82   0.849
  sub8                      16.73       0.00       0.00       1.27      13.96       0.23      14.19        0.09    25.44   0.848
  sub9                      16.73       0.00       0.00       1.27      13.96       0.23      14.19        0.07    19.02   0.848
  sub10                     16.73       0.00       0.00       1.13      14.10       0.21      14.30        0.16    42.73   0.855
  sub11                     16.73       0.00       0.00       1.12      14.11       0.21      14.33        0.17    47.25   0.857
  sub12                     16.73       0.00       0.00       1.83      13.37       0.35      13.71        0.12    35.87   0.820
  sub14                     16.73       0.00       0.00       1.27      13.95       0.23      14.19        0.14    37.43   0.848
  sub15                     16.73       0.00       0.00       4.53      10.73       0.49      11.22        0.19    51.47   0.671
  sub16                     16.73       0.00       0.00       4.88      10.29       0.64      10.93        0.11    32.57   0.653
  sub17                     16.73       0.00       0.00       4.74      10.44       0.61      11.05        0.09    26.81   0.661
  sub22                     16.73       0.00       0.00       6.60       8.75       0.59       9.34        0.59   160.16   0.558
  sub23                     16.73       0.00       0.00       5.59       9.67       0.60      10.27        0.49   134.74   0.614
  sub60                     16.73       0.00       0.00       1.94      11.65       0.06      11.71        3.55   386.89   0.700
  sub61                     16.73       0.00       0.00       2.75      11.65       0.09      11.73        3.62   476.87   0.701
  sub62                     16.73       0.00       0.00       1.26      12.72       0.07      12.79        3.93   491.27   0.765
  sub63                     16.73       0.00       0.00       4.75      10.14       0.10      10.23        3.10   437.54   0.612
  sub64                     16.73       0.00       0.00       2.45      11.19       0.06      11.26        3.42   367.58   0.673
  sub65                     16.73       0.00       0.00       2.11      11.40       0.06      11.46        3.52   372.98   0.685
  sub66                     16.73       0.00       0.00       4.79       9.55       0.06       9.61        2.95   336.52   0.575
  sub67                     16.73       0.00       0.00       1.24      13.25       0.09      13.35        4.12   605.48   0.798
  sub68                     16.73       0.00       0.00       2.25      12.20       0.10      12.30        3.78   521.64   0.735
  sub69                     16.73       0.00       0.00       2.37      12.50       0.14      12.64        2.95   482.20   0.755
  sub70                     16.73      12.90       0.00       8.98      17.16       1.09      18.25        4.18   460.88   0.616
  sub71                     16.73       0.00       0.00       1.27      12.46       0.07      12.53        2.96   345.19   0.749
  sub72                     16.73       0.00       0.00       1.14      10.39       0.03      10.43        2.12   185.81   0.623
  sub73                     16.73      17.77       0.00       9.78      19.72       1.38      21.10        4.96   482.28   0.612
  sub74                     16.73       0.00       0.00      12.48       3.71       0.07       3.78        1.51   261.10   0.226
  
  
  ******************
  Node Depth Summary
  ******************
  
  ---------------------------------------------------------------------------------
                                 Average  Maximum  Maximum  Time of Max    Reported
                                   Depth    Depth      HGL   Occurrence   Max Depth
  Node                 Type       Meters   Meters   Meters  days hr:min      Meters
  ---------------------------------------------------------------------------------
  WS02001211           JUNCTION     0.66     0.76     5.60     0  02:02        0.76
  WS02001212           JUNCTION     0.39     0.50     5.56     0  02:01        0.50
  WS02001213           JUNCTION     0.63     0.77     5.53     0  02:01        0.77
  WS02003069           JUNCTION     0.46     0.64     5.23     0  02:01        0.64
  WS02003072           JUNCTION     0.52     0.69     5.07     0  02:01        0.69
  WS02003073           JUNCTION     0.31     0.43     4.50     0  02:02        0.43
  WS02003060           JUNCTION     0.41     0.57     5.50     0  02:00        0.57
  WS02003066           JUNCTION     0.25     0.36     5.91     0  01:57        0.36
  WS02003059           JUNCTION     0.69     0.83     5.52     0  02:00        0.83
  WS02003067           JUNCTION     0.60     0.79     6.11     0  01:57        0.79
  WS02004401           JUNCTION     0.72     1.11     7.11     0  01:54        1.11
  WS02004402           JUNCTION     0.75     1.11     7.07     0  01:54        1.11
  WS02004403           JUNCTION     0.77     1.10     7.03     0  01:54        1.10
  WS02004404           JUNCTION     0.84     1.15     7.00     0  01:54        1.15
  WS02004406           JUNCTION     0.84     1.10     6.93     0  01:55        1.10
  WS02004409           JUNCTION     0.53     0.85     6.62     0  01:56        0.85
  WS02004410           JUNCTION     0.55     0.85     6.57     0  01:56        0.85
  WS02004411           JUNCTION     0.56     0.85     6.53     0  01:57        0.85
  WS02004412           JUNCTION     0.58     0.83     6.47     0  01:57        0.83
  WS02004413           JUNCTION     0.73     0.97     6.44     0  01:57        0.97
  WS02004405           JUNCTION     0.84     1.13     6.98     0  01:55        1.13
  WS02006109           JUNCTION     0.81     1.26     7.88     0  01:54        1.25
  WS02006110           JUNCTION     0.79     1.11     7.69     0  01:54        1.11
  WS02006111           JUNCTION     0.25     0.61     7.31     0  01:54        0.61
  WS02006112           JUNCTION     0.90     1.39     7.27     0  01:54        1.38
  WS02006113           JUNCTION     0.37     0.61     7.50     0  01:55        0.61
  WS02006115           JUNCTION     0.62     1.06     7.20     0  01:54        1.06
  WS02006116           JUNCTION     0.70     1.12     7.16     0  01:54        1.12
  WS02006230           JUNCTION     0.79     1.37     8.12     0  01:54        1.37
  WS02006231           JUNCTION     0.53     1.01     8.13     0  01:54        1.00
  WS02006232           JUNCTION     0.67     1.15     8.19     0  01:45        1.08
  WS02006234           JUNCTION     0.58     1.14     8.30     0  01:45        0.97
  WS02006235           JUNCTION     0.61     1.06     8.23     0  01:45        0.97
  WS02006238           JUNCTION     0.63     1.09     8.24     0  01:45        0.99
  WS02006240           JUNCTION     0.52     1.09     8.38     0  01:45        0.87
  WS02006242           JUNCTION     0.57     1.55     8.82     0  01:44        0.91
  WS02006243           JUNCTION     0.45     1.16     8.58     0  01:46        0.78
  WS02006245           JUNCTION     0.42     0.74     8.23     0  01:50        0.72
  WS02006247           JUNCTION     0.44     0.76     8.26     0  01:48        0.72
  WS02006248           JUNCTION     0.38     0.64     8.23     0  01:55        0.64
  WS02006249           JUNCTION     0.41     0.63     8.23     0  01:55        0.63
  WS02006239           JUNCTION     0.59     1.18     8.38     0  01:45        0.94
  WS02006251           JUNCTION     0.39     0.62     8.29     0  01:55        0.62
  WS02006252           JUNCTION     0.31     0.35     8.59     0  01:40        0.35
  WS02006253           JUNCTION     0.42     0.66     8.30     0  01:55        0.66
  WS02006256           JUNCTION     1.08     1.21     8.14     0  03:00        1.21
  WS02004138           JUNCTION     0.15     0.17     7.42     0  00:00        0.17
  WS02004407           JUNCTION     0.24     0.37     6.68     0  01:55        0.37
  WS02006228           JUNCTION     0.82     1.38     8.03     0  01:55        1.37
  WS02006229           JUNCTION     0.80     1.41     8.11     0  01:54        1.41
  WS02006280           JUNCTION     0.08     0.25     8.52     0  01:55        0.25
  WS02006284           JUNCTION     0.39     0.64     9.04     0  01:55        0.64
  WS02006287           JUNCTION     0.12     0.38     9.33     0  01:54        0.38
  WSF200               JUNCTION     0.24     0.40     5.63     0  01:59        0.40
  HS02004901           JUNCTION     0.14     0.36    10.18     0  01:52        0.36
  HS02004881           JUNCTION     0.01     0.05     9.08     0  01:55        0.05
  HS02004876           JUNCTION     0.05     0.16     9.19     0  01:55        0.16
  HS02004870           JUNCTION     0.02     0.09     9.38     0  01:55        0.09
  HS02004862           JUNCTION     0.03     0.11     9.49     0  01:55        0.11
  HS02004856           JUNCTION     0.08     0.15     9.58     0  01:55        0.15
  HS02004852           JUNCTION     0.02     0.07     9.59     0  01:55        0.07
  HS02004848           JUNCTION     0.01     0.07     9.67     0  01:55        0.07
  HS02004842           JUNCTION     0.34     0.40     9.67     0  01:55        0.40
  HS02004837           JUNCTION     0.03     0.09     9.67     0  01:55        0.09
  HS02004830           JUNCTION     0.05     0.10     9.57     0  01:56        0.10
  HS02004824           JUNCTION     0.03     0.12     9.53     0  01:55        0.12
  HS02004817           JUNCTION     0.46     0.69     9.53     0  01:55        0.69
  HS02004807           JUNCTION     0.14     0.36     9.53     0  01:55        0.36
  HS02004802           JUNCTION     0.18     0.39     9.52     0  01:55        0.39
  HS02004799           JUNCTION     0.14     0.45     9.66     0  01:53        0.45
  HS02004792           JUNCTION     0.05     0.20     9.73     0  01:52        0.20
  HS02004788           JUNCTION     0.04     0.15    10.05     0  01:53        0.15
  HS02004785           JUNCTION     0.06     0.23    10.14     0  01:52        0.23
  HS02004777           JUNCTION     0.16     0.37    10.17     0  01:52        0.37
  HS02004770           JUNCTION     0.13     0.35    10.18     0  01:52        0.35
  HS02004480           JUNCTION     0.10     0.37     9.61     0  01:53        0.37
  HS02004479           JUNCTION     0.14     0.41     9.61     0  01:53        0.41
  HS02004478           JUNCTION     0.08     0.27     9.50     0  01:54        0.27
  YS02001745           JUNCTION     0.78     0.93     8.44     0  02:51        0.93
  YS02001748           JUNCTION     1.18     1.37     8.45     0  02:50        1.36
  YS02001751           JUNCTION     1.36     1.87     8.75     0  01:48        1.55
  YS02001754           JUNCTION     1.62     1.88     8.49     0  01:48        1.82
  YS02001762           JUNCTION     1.82     2.04     8.44     0  02:40        2.04
  YS02001765           JUNCTION     1.77     1.99     8.44     0  02:27        1.98
  YS02001767           JUNCTION     1.73     1.94     8.43     0  02:33        1.93
  YS02001770           JUNCTION     1.73     1.93     8.42     0  02:42        1.92
  YS02001774           JUNCTION     1.80     1.98     8.41     0  02:39        1.98
  YS02001779           JUNCTION     1.54     1.68     8.37     0  01:47        1.68
  YS02001882           JUNCTION     0.69     1.68     8.40     0  01:57        1.62
  YS02001884           JUNCTION     0.78     1.77     8.39     0  01:57        1.73
  YS02001759           JUNCTION     1.85     2.08     8.44     0  02:33        2.07
  YS02001887           JUNCTION     0.86     1.82     8.36     0  01:57        1.80
  YS02001890           JUNCTION     0.89     1.81     8.32     0  01:57        1.81
  YS02001898           JUNCTION     0.65     1.58     8.31     0  01:57        1.56
  YS02001901           JUNCTION     0.77     1.68     8.29     0  01:57        1.67
  YS02001904           JUNCTION     0.75     1.64     8.27     0  01:57        1.63
  YS02001907           JUNCTION     1.08     1.96     8.25     0  01:57        1.96
  YS02001910           JUNCTION     0.87     2.02     8.53     0  01:57        1.83
  YS02001915           JUNCTION     0.67     1.94     8.66     0  01:57        1.69
  YS02001918           JUNCTION     0.41     1.81     8.88     0  01:57        1.48
  YS02001619           JUNCTION     1.32     1.61     8.54     0  01:47        1.48
  YS02001629           JUNCTION     1.68     1.85     8.40     0  01:47        1.85
  YS02001641           JUNCTION     1.78     1.94     8.37     0  01:54        1.93
  YS02001644           JUNCTION     1.78     1.92     8.35     0  01:51        1.92
  YS02001652           JUNCTION     1.63     2.16     8.76     0  02:13        1.89
  YS02001655           JUNCTION     1.39     2.18     9.03     0  02:12        1.71
  YS02001920           JUNCTION     0.51     2.08     9.09     0  01:58        1.62
  YS02001923           JUNCTION     0.34     1.92     9.18     0  01:58        1.44
  YS02001926           JUNCTION     0.36     1.57     9.01     0  01:58        1.34
  YS02001929           JUNCTION     0.22     1.36     9.06     0  01:58        1.15
  YS02001658           JUNCTION     1.12     2.23     9.37     0  02:10        1.50
  YS02001661           JUNCTION     0.89     2.36     9.76     0  02:12        1.59
  YS02001664           JUNCTION     0.40     0.57     8.49     0  03:40        0.56
  YS02001622           JUNCTION     1.35     1.62     8.52     0  01:47        1.50
  YS02001633           JUNCTION     1.77     1.97     8.42     0  01:50        1.94
  YS02001649           JUNCTION     1.82     2.05     8.44     0  01:55        2.05
  YS02001757           JUNCTION     1.95     2.18     8.44     0  02:36        2.16
  YS02001895           JUNCTION     0.65     1.58     8.32     0  01:57        1.56
  YS02001625           JUNCTION     1.63     1.78     8.38     0  01:46        1.78
  YS02163301           JUNCTION     1.71     1.90     8.42     0  01:50        1.88
  YS02163601           JUNCTION     1.82     2.00     8.40     0  01:50        1.98
  YS02164001           JUNCTION     1.76     1.93     8.39     0  01:50        1.91
  YS02001647           JUNCTION     1.61     1.80     8.41     0  02:12        1.79
  YSB1154              JUNCTION     0.28     0.56     9.62     0  01:53        0.56
  YSB6556              JUNCTION     0.17     0.44     9.61     0  01:53        0.44
  YSB1174              JUNCTION     0.23     0.50     9.61     0  01:53        0.50
  YSB1171              JUNCTION     0.43     0.71     9.61     0  01:53        0.71
  YS02006553           JUNCTION     1.08     2.18     8.47     0  01:57        1.97
  YS02006561           JUNCTION     0.42     1.94     8.60     0  01:57        1.08
  YS02006556           JUNCTION     1.04     2.39     8.70     0  01:57        1.92
  YS02006558           JUNCTION     1.08     2.50     8.77     0  01:57        1.97
  YS02001783           JUNCTION     0.65     2.36     8.50     0  01:57        1.47
  YS02001784           JUNCTION     0.66     2.28     8.35     0  01:57        1.42
  YS02001786           JUNCTION     0.59     2.23     8.26     0  01:57        1.26
  YS02001788           JUNCTION     0.50     2.28     8.26     0  01:57        1.13
  YS02001790           JUNCTION     0.62     1.96     7.60     0  01:56        1.29
  YS02001791           JUNCTION     0.59     2.63     8.10     0  01:56        1.27
  YS02001793           JUNCTION     0.84     3.28     8.11     0  04:42        1.80
  WS02004139           JUNCTION     0.60     0.70     5.61     0  02:02        0.70
  WSC                  OUTFALL      0.31     0.43     1.10     0  02:02        0.43
  3                    OUTFALL      0.11     0.21     6.21     0  03:00        0.21
  4                    OUTFALL      0.01     0.13     7.13     0  01:55        0.13
  5                    OUTFALL      0.00     0.00     5.00     0  00:00        0.00
  JK-storage           STORAGE      3.10     5.80     6.60     0  01:57        5.80
  CC-storage           STORAGE      1.17     1.41     8.41     0  02:53        1.41
  XR-storage           STORAGE      7.43     7.72     5.72     0  01:58        7.72
  
  
  *******************
  Node Inflow Summary
  *******************
  
  -------------------------------------------------------------------------------------------------
                                  Maximum  Maximum                  Lateral       Total        Flow
                                  Lateral    Total  Time of Max      Inflow      Inflow     Balance
                                   Inflow   Inflow   Occurrence      Volume      Volume       Error
  Node                 Type           LPS      LPS  days hr:min    10^6 ltr    10^6 ltr     Percent
  -------------------------------------------------------------------------------------------------
  WS02001211           JUNCTION      7.35   293.85     0  02:26       0.207        6.73       0.535
  WS02001212           JUNCTION      0.00   295.13     0  02:28           0        6.69       0.298
  WS02001213           JUNCTION      0.00   296.27     0  02:29           0        6.67       0.370
  WS02003069           JUNCTION      0.32  1108.39     0  02:00     0.00902        16.1       0.193
  WS02003072           JUNCTION      0.00  1108.37     0  02:01           0        16.1       0.236
  WS02003073           JUNCTION      1.82  1110.23     0  02:01      0.0514        16.1       0.266
  WS02003060           JUNCTION     16.53  1108.03     0  02:00       0.466        16.1       0.183
  WS02003066           JUNCTION      0.00   807.53     0  01:57           0        9.05       0.050
  WS02003059           JUNCTION      0.00   297.93     0  02:29           0        6.65       0.578
  WS02003067           JUNCTION      0.00   807.50     0  01:57           0        9.06       0.105
  WS02004401           JUNCTION      0.00   808.25     0  01:55           0        9.29       0.235
  WS02004402           JUNCTION      0.00   808.24     0  01:55           0        9.27       0.221
  WS02004403           JUNCTION      0.00   808.25     0  01:55           0        9.25       0.201
  WS02004404           JUNCTION      0.16   808.41     0  01:55     0.00457        9.24       0.151
  WS02004406           JUNCTION      0.00   808.45     0  01:55           0         9.2       0.368
  WS02004409           JUNCTION      0.00   808.41     0  01:55           0        9.16       0.183
  WS02004410           JUNCTION      0.00   807.86     0  01:56           0        9.15       0.206
  WS02004411           JUNCTION      0.00   807.61     0  01:56           0        9.13       0.211
  WS02004412           JUNCTION      0.00   807.51     0  01:57           0        9.11       0.227
  WS02004413           JUNCTION      0.00   807.49     0  01:57           0        9.09       0.335
  WS02004405           JUNCTION      0.04   808.45     0  01:55     0.00107        9.23       0.225
  WS02006109           JUNCTION      1.23   783.21     0  01:54      0.0347        9.33       0.236
  WS02006110           JUNCTION      0.00   783.18     0  01:54           0         9.3       0.216
  WS02006111           JUNCTION      0.00   782.68     0  01:55           0        9.27       0.048
  WS02006112           JUNCTION     26.81   808.31     0  01:55      0.0948        9.36       0.314
  WS02006113           JUNCTION      0.00   783.20     0  01:54           0        9.28       0.110
  WS02006115           JUNCTION      0.00   808.32     0  01:55           0        9.33       0.221
  WS02006116           JUNCTION      0.00   808.25     0  01:55           0        9.31       0.210
  WS02006230           JUNCTION     10.28   339.19     0  03:12        0.29        6.64       0.208
  WS02006231           JUNCTION      0.00   326.37     0  03:10           0        6.36       0.172
  WS02006232           JUNCTION      0.00   326.14     0  03:10           0        6.37       0.256
  WS02006234           JUNCTION      0.00   324.80     0  03:10           0        6.38       0.126
  WS02006235           JUNCTION      0.00   324.60     0  03:10           0        6.47       0.170
  WS02006238           JUNCTION      0.00   246.78     0  03:10           0        4.32       0.181
  WS02006240           JUNCTION      0.00   244.43     0  03:10           0        4.32       0.282
  WS02006242           JUNCTION      0.00   243.40     0  03:09           0        4.32       0.338
  WS02006243           JUNCTION      0.00   259.71     0  01:44           0        4.32       0.096
  WS02006245           JUNCTION      0.00   284.75     0  03:11           0        4.32       0.224
  WS02006247           JUNCTION      0.00   283.16     0  01:45           0        4.33       0.172
  WS02006248           JUNCTION      0.00   289.55     0  01:45           0        4.34       0.100
  WS02006249           JUNCTION      0.00   342.97     0  01:55           0        4.62       0.219
  WS02006239           JUNCTION      0.00   245.19     0  03:10           0        4.32       0.270
  WS02006251           JUNCTION      0.08   342.96     0  01:55     0.00217        4.63       0.189
  WS02006252           JUNCTION      0.00   200.00     0  01:40           0        4.09       0.010
  WS02006253           JUNCTION      3.66   142.87     0  01:54      0.0117       0.543       0.670
  WS02006256           JUNCTION      0.00   600.00     0  04:20           0        6.68       0.048
  WS02004138           JUNCTION      0.00   285.00     0  00:00           0        6.56       0.081
  WS02004407           JUNCTION      0.00   808.47     0  01:55           0        9.17       0.083
  WS02006228           JUNCTION      0.00   782.00     0  01:54           0        9.31       0.163
  WS02006229           JUNCTION      0.00   782.16     0  01:53           0        9.32       0.147
  WS02006280           JUNCTION      0.00   656.05     0  01:55           0         2.7       0.003
  WS02006284           JUNCTION      0.10   655.96     0  01:55      0.0027         2.7       0.039
  WS02006287           JUNCTION      0.00   655.81     0  01:54           0         2.7       0.027
  WSF200               JUNCTION      0.00   807.49     0  01:57           0        9.04       0.046
  HS02004901           JUNCTION     32.57    32.57     0  01:50       0.114       0.115       1.560
  HS02004881           JUNCTION     13.82   139.59     0  01:54      0.0479       0.529       0.076
  HS02004876           JUNCTION     24.51   126.37     0  01:54      0.0923       0.482       0.114
  HS02004870           JUNCTION     25.44   102.13     0  01:54      0.0907        0.39       0.028
  HS02004862           JUNCTION     23.11    77.53     0  01:55       0.099       0.299       0.058
  HS02004856           JUNCTION     19.02    54.51     0  01:55      0.0682       0.202       0.723
  HS02004852           JUNCTION      0.00    36.10     0  01:55           0       0.134       0.042
  HS02004848           JUNCTION     50.49    50.49     0  01:57       0.223       0.223       0.021
  HS02004842           JUNCTION      0.00    15.55     0  02:06           0       0.102      14.562
  HS02004837           JUNCTION     49.08    62.50     0  01:55       0.337       0.426       0.191
  HS02004830           JUNCTION      0.15    62.61     0  01:55     0.00423       0.416       0.298
  HS02004824           JUNCTION     60.06   122.21     0  01:58       0.286       0.702       0.077
  HS02004817           JUNCTION      0.60   124.03     0  01:59      0.0169       0.718       2.378
  HS02004807           JUNCTION     47.25   168.28     0  01:57       0.166       0.868       0.499
  HS02004802           JUNCTION      0.00   169.25     0  01:58           0       0.865       0.462
  HS02004799           JUNCTION     37.43   414.53     0  01:52       0.135        1.57       0.167
  HS02004792           JUNCTION    160.44   377.30     0  01:52       0.598        1.44       0.028
  HS02004788           JUNCTION     53.14   218.54     0  01:53        0.24       0.839       0.046
  HS02004785           JUNCTION      0.15   165.59     0  01:52     0.00423       0.601       0.083
  HS02004777           JUNCTION      0.03   165.80     0  01:51    0.000846       0.601       0.872
  HS02004770           JUNCTION    134.74   166.64     0  01:51        0.49       0.602       0.516
  HS02004480           JUNCTION      0.00   492.22     0  01:53           0        1.85       0.064
  HS02004479           JUNCTION      0.00    78.00     0  01:53           0       0.292       0.252
  HS02004478           JUNCTION      0.00   655.76     0  01:54           0         2.7       0.013
  YS02001745           JUNCTION    386.89   386.89     0  02:16        3.55        3.55       0.324
  YS02001748           JUNCTION      0.04   396.97     0  02:16     0.00127        3.54       0.655
  YS02001751           JUNCTION      0.01   396.46     0  02:16     0.00031        3.52       0.683
  YS02001754           JUNCTION      0.26   396.85     0  02:16     0.00733         3.5       0.702
  YS02001762           JUNCTION      0.00   437.17     0  02:04           0        2.24       0.943
  YS02001765           JUNCTION      0.00   437.42     0  02:04           0        2.24       1.088
  YS02001767           JUNCTION      0.54   437.50     0  02:04      0.0151        2.26       1.592
  YS02001770           JUNCTION    491.42   620.31     0  03:00        3.94        4.59       0.688
  YS02001774           JUNCTION      0.00   620.32     0  03:00           0        2.96       0.843
  YS02001779           JUNCTION      0.01   620.33     0  03:00    0.000141        2.93       0.524
  YS02001882           JUNCTION      0.00    18.61     0  01:52           0      0.0172      15.333
  YS02001884           JUNCTION      0.00    45.56     0  01:53           0      0.0532      13.398
  YS02001759           JUNCTION    476.91   872.27     0  02:04        3.62        5.18       0.442
  YS02001887           JUNCTION    605.93   606.12     0  02:16        4.13        4.16       0.211
  YS02001890           JUNCTION      0.00   606.19     0  02:15           0        4.11       0.232
  YS02001898           JUNCTION      0.00   522.06     0  01:58           0           4       0.078
  YS02001901           JUNCTION      0.00   522.82     0  01:58           0           4       0.180
  YS02001904           JUNCTION      0.00   523.35     0  01:57           0        3.99       0.161
  YS02001907           JUNCTION      0.00  1186.27     0  01:59           0        9.13       0.264
  YS02001910           JUNCTION      0.00   669.86     0  01:59           0        5.15       0.238
  YS02001915           JUNCTION    345.21   669.52     0  01:59        2.96         5.2       0.121
  YS02001918           JUNCTION      0.00   391.89     0  01:59           0        2.27       0.070
  YS02001619           JUNCTION    336.52   336.52     0  02:16        2.95        2.95       0.415
  YS02001629           JUNCTION      0.00   231.95     0  01:47           0        1.44       2.025
  YS02001641           JUNCTION      0.00   417.79     0  01:51           0        4.85       0.431
  YS02001644           JUNCTION    367.62  1418.70     0  03:00        3.42        12.5       0.208
  YS02001652           JUNCTION      0.00   475.69     0  02:17           0        3.05       0.750
  YS02001655           JUNCTION      0.15   475.80     0  02:17     0.00434        3.07       0.827
  YS02001920           JUNCTION      2.87   391.61     0  01:59      0.0809        2.25       0.134
  YS02001923           JUNCTION      0.04   319.80     0  02:00     0.00106        2.16       0.041
  YS02001926           JUNCTION      0.05   274.96     0  01:59     0.00147        2.14       0.153
  YS02001929           JUNCTION    185.81   231.50     0  01:58        2.12        2.13       0.027
  YS02001658           JUNCTION      0.00   501.92     0  02:13           0        3.09       0.761
  YS02001661           JUNCTION      0.00   772.96     0  02:05           0        3.81      -0.041
  YS02001664           JUNCTION    437.54   437.54     0  02:16         3.1        3.82       0.190
  YS02001622           JUNCTION      0.00   336.67     0  02:16           0        2.94       1.092
  YS02001633           JUNCTION    373.18   417.54     0  01:51        3.53        4.92       0.651
  YS02001649           JUNCTION      0.00   978.03     0  02:01           0        6.49       0.569
  YS02001757           JUNCTION      0.00  2138.82     0  02:03           0        10.2       0.907
  YS02001895           JUNCTION      0.00   521.61     0  01:58           0           4       0.133
  YS02001625           JUNCTION      0.00   336.60     0  02:16           0        2.91       1.362
  YS02163301           JUNCTION      0.00   225.63     0  01:48           0        1.44       1.678
  YS02163601           JUNCTION      0.11   417.67     0  01:51      0.0031        4.87       0.617
  YS02164001           JUNCTION      0.00   417.67     0  01:51           0        4.85       0.408
  YS02001647           JUNCTION      0.00   692.20     0  02:55           0         5.5       0.514
  YSB1154              JUNCTION     43.61    43.61     0  01:53       0.163       0.164       0.888
  YSB6556              JUNCTION      0.00    43.64     0  01:53           0       0.165       0.764
  YSB1174              JUNCTION     35.87    35.87     0  01:50        0.12        0.12       1.078
  YSB1171              JUNCTION      0.00    78.02     0  01:52           0       0.291       2.227
  YS02006553           JUNCTION      0.00   682.97     0  03:22           0        7.14       0.219
  YS02006561           JUNCTION      0.00  1096.61     0  01:57           0        10.9       0.006
  YS02006556           JUNCTION      0.00   683.09     0  03:22           0        7.15       0.159
  YS02006558           JUNCTION    522.52  1096.88     0  01:57        3.81        10.9       0.050
  YS02001783           JUNCTION      0.00  1081.42     0  01:57           0        10.9       0.024
  YS02001784           JUNCTION      1.06  1082.36     0  01:57      0.0299        10.9       0.037
  YS02001786           JUNCTION      0.06  1082.22     0  01:57     0.00159        10.9       0.034
  YS02001788           JUNCTION      0.07  1065.51     0  01:56       0.002        10.9       0.018
  YS02001790           JUNCTION      0.15  1055.70     0  01:56     0.00437        10.9       0.027
  YS02001791           JUNCTION      0.00  1092.28     0  01:56           0        10.9      -0.008
  YS02001793           JUNCTION      0.00  1018.48     0  01:55           0        10.9      -0.039
  WS02004139           JUNCTION      0.32   290.40     0  00:00     0.00905        6.56       0.596
  WSC                  OUTFALL       0.00  1110.35     0  02:02           0          16       0.000
  3                    OUTFALL       0.00   512.48     0  03:00           0         4.5       0.000
  4                    OUTFALL       0.00   172.75     0  01:55           0       0.273       0.000
  5                    OUTFALL       0.00     0.00     0  00:00           0           0       0.000 ltr
  JK-storage           STORAGE       0.00  1200.61     0  04:41           0        11.1      -5.033
  CC-storage           STORAGE       0.00  2138.72     0  02:04           0        7.89       0.824
  XR-storage           STORAGE     844.69   844.69     0  03:01        12.1        12.7      -0.001
  
  
  **********************
  Node Surcharge Summary
  **********************
  
  Surcharging occurs when water rises above the top of the highest conduit.
  ---------------------------------------------------------------------
                                               Max. Height   Min. Depth
                                   Hours       Above Crown    Below Rim
  Node                 Type      Surcharged         Meters       Meters
  ---------------------------------------------------------------------
  WS02004401           JUNCTION        0.57          0.110        1.550
  WS02004402           JUNCTION        0.60          0.112        1.628
  WS02004403           JUNCTION        0.61          0.102        1.928
  WS02004404           JUNCTION        0.83          0.154        2.626
  WS02004406           JUNCTION        0.72          0.104        2.346
  WS02004405           JUNCTION        0.77          0.135        2.665
  WS02006109           JUNCTION        1.68          0.440        1.380
  WS02006110           JUNCTION        1.44          0.199        1.651
  WS02006112           JUNCTION        1.53          0.388        1.292
  WS02006115           JUNCTION        0.28          0.052        2.198
  WS02006116           JUNCTION        0.34          0.059        2.231
  WS02006230           JUNCTION        0.78          0.295        1.275
  WS02006231           JUNCTION        0.90          0.299        1.231
  WS02006232           JUNCTION        1.55          0.448        1.032
  WS02006234           JUNCTION        1.41          0.420        0.820
  WS02006235           JUNCTION        1.48          0.353        0.937
  WS02006238           JUNCTION        1.50          0.374        1.056
  WS02006240           JUNCTION        0.85          0.378        1.012
  WS02006242           JUNCTION        1.39          0.820        0.000
  WS02006243           JUNCTION        0.33          0.452        0.318
  WS02006245           JUNCTION        0.15          0.030        0.820
  WS02006247           JUNCTION        0.13          0.052        0.708
  WS02006239           JUNCTION        1.39          0.435        0.855
  WS02006228           JUNCTION        1.67          0.547        1.653
  YS02001748           JUNCTION        5.99          0.288        0.902
  YS02001751           JUNCTION        6.02          0.874        0.326
  YS02001754           JUNCTION        6.04          0.832        0.318
  YS02001762           JUNCTION        6.08          1.040        0.110
  YS02001765           JUNCTION        6.08          0.988        0.112
  YS02001767           JUNCTION        6.07          0.942        0.088
  YS02001770           JUNCTION        6.07          0.896        0.024
  YS02001774           JUNCTION        6.08          0.984        0.066
  YS02001779           JUNCTION        6.04          0.680        0.000
  YS02001882           JUNCTION        1.76          0.682        0.148
  YS02001884           JUNCTION        1.79          0.709        0.161
  YS02001759           JUNCTION        6.09          1.077        0.133
  YS02001887           JUNCTION        1.87          0.774        0.176
  YS02001890           JUNCTION        1.90          0.760        0.000
  YS02001898           JUNCTION        1.72          0.549        0.191
  YS02001901           JUNCTION        1.84          0.683        0.187
  YS02001904           JUNCTION        1.81          0.641        0.209
  YS02001907           JUNCTION        2.26          0.950        0.000
  YS02001910           JUNCTION        1.94          1.020        0.080
  YS02001915           JUNCTION        1.75          0.939        0.061
  YS02001918           JUNCTION        1.51          0.810        0.000
  YS02001619           JUNCTION        6.02          0.610        0.000
  YS02001629           JUNCTION        6.02          0.470        0.000
  YS02001641           JUNCTION        6.08          0.935        0.165
  YS02001644           JUNCTION        6.08          0.920        0.000
  YS02001652           JUNCTION        6.05          1.130        0.000
  YS02001655           JUNCTION        6.02          1.176        0.024
  YS02001920           JUNCTION        1.55          1.083        0.057
  YS02001923           JUNCTION        0.01          0.706        0.114
  YS02001926           JUNCTION        0.01          0.566        0.334
  YS02001929           JUNCTION        0.01          0.364        0.416
  YS02001658           JUNCTION        5.99          1.230        0.070
  YS02001661           JUNCTION        0.25          1.285        0.105
  YS02001622           JUNCTION        6.02          0.620        0.000
  YS02001633           JUNCTION        6.08          0.949        0.111
  YS02001649           JUNCTION        6.08          1.050        0.000
  YS02001757           JUNCTION        6.12          1.180        0.030
  YS02001895           JUNCTION        1.73          0.576        0.174
  YS02001625           JUNCTION        6.05          0.780        0.000
  YS02163301           JUNCTION        6.07          0.902        0.128
  YS02163601           JUNCTION        6.09          1.004        0.076
  YS02164001           JUNCTION        6.08          0.927        0.173
  YS02001647           JUNCTION        6.05          0.804        0.096
  YS02006553           JUNCTION        2.31          1.183        0.007
  YS02006561           JUNCTION        1.61          1.136        0.014
  YS02006556           JUNCTION        2.11          1.350        0.000
  YS02006558           JUNCTION        2.09          1.400        0.000
  YS02001783           JUNCTION        2.12          1.559        0.041
  YS02001784           JUNCTION        2.18          1.477        0.013
  YS02001786           JUNCTION        2.05          1.430        0.000
  YS02001788           JUNCTION        2.04          1.480        0.000
  YS02001790           JUNCTION        2.43          1.157        0.000
  YS02001791           JUNCTION        2.47          1.827        0.093
  YS02001793           JUNCTION        2.99          2.276        0.324
  
  
  *********************
  Node Flooding Summary
  *********************
  
  Flooding refers to all water that overflows a node, whether it ponds or not.
  --------------------------------------------------------------------------
                                                             Total   Maximum
                                 Maximum   Time of Max       Flood    Ponded
                        Hours       Rate    Occurrence      Volume     Depth
  Node                 Flooded       LPS   days hr:min    10^6 ltr    Meters
  --------------------------------------------------------------------------
  WS02006242              0.01     56.27      0  01:44       0.000     0.000
  YS02001779              3.43    620.33      0  03:00       2.916     0.000
  YS02001890              0.56     89.89      0  02:15       0.100     0.000
  YS02001907              1.38    667.45      0  01:59       1.977     0.000
  YS02001918              0.01     96.11      0  01:57       0.000     0.000
  YS02001619              0.01     69.61      0  01:48       0.000     0.000
  YS02001629              0.01    183.97      0  01:47       0.001     0.000
  YS02001644              5.84   1418.69      0  03:00      11.126     0.000
  YS02001652              0.01      7.38      0  02:13       0.000     0.000
  YS02001622              0.01     70.24      0  01:47       0.000     0.000
  YS02001649              0.07     39.36      0  02:12       0.003     0.000
  YS02001625              2.01    326.19      0  02:16       1.447     0.000
  YS02006556              0.01     27.18      0  01:57       0.000     0.000
  YS02006558              0.01     14.04      0  01:57       0.000     0.000
  YS02001786              0.01     75.70      0  01:57       0.000     0.000
  YS02001788              0.01    169.00      0  01:57       0.000     0.000
  YS02001790              0.01    200.70      0  01:56       0.000     0.000
  JK-storage              2.33    967.08      0  02:00       5.024     0.000
  XR-storage              5.01    652.16      0  03:00       5.248     0.000
  
  
  **********************
  Storage Volume Summary
  **********************
  
  --------------------------------------------------------------------------------------------------
                         Average     Avg  Evap Exfil       Maximum     Max    Time of Max    Maximum
                          Volume    Pcnt  Pcnt  Pcnt        Volume    Pcnt     Occurrence    Outflow
  Storage Unit           1000 m3    Full  Loss  Loss       1000 m3    Full    days hr:min        LPS
  --------------------------------------------------------------------------------------------------
  JK-storage               0.156      53     0     0         0.291     100       0  01:57     922.20
  CC-storage               3.270      21     0     0         3.933      25       0  02:53     200.00
  XR-storage               0.892      96     0     0         0.926     100       0  01:58     285.00
  
  
  ***********************
  Outfall Loading Summary
  ***********************
  
  -----------------------------------------------------------
                         Flow       Avg       Max       Total
                         Freq      Flow      Flow      Volume
  Outfall Node           Pcnt       LPS       LPS    10^6 ltr
  -----------------------------------------------------------
  WSC                   99.99    631.01   1110.35      16.033
  3                     93.75    212.70    512.48       4.503
  4                     22.77     51.45    172.75       0.273
  5                      0.00      0.00      0.00       0.000
  -----------------------------------------------------------
  System                54.13    895.17   1384.10      20.809
  
  
  ********************
  Link Flow Summary
  ********************
  
  -----------------------------------------------------------------------------
                                 Maximum  Time of Max   Maximum    Max/    Max/
                                  |Flow|   Occurrence   |Veloc|    Full    Full
  Link                 Type          LPS  days hr:min     m/sec    Flow   Depth
  -----------------------------------------------------------------------------
  WS02003066WSF200     CONDUIT    807.49     0  01:57      2.94    0.14    0.29
  WS02006287WS02006284 CONDUIT    655.87     0  01:55      2.36    0.30    0.38
  WS02006284WS02006280 CONDUIT    656.05     0  01:55      2.59    0.27    0.36
  WS02006280WS02006229 CONDUIT    656.06     0  01:55      4.21    0.14    0.25
  WS02006229WS02006228 CONDUIT    782.00     0  01:54      1.56    2.59    1.00
  WS02006256WS02006235 CONDUIT    166.25     0  00:01      2.58    1.76    1.00
  WS02006253WS02006251 CONDUIT    142.88     0  01:55      0.59    0.43    0.91
  WS02006252WS02006251 CONDUIT    201.26     0  01:40      1.97    0.74    0.76
  WS02006251WS02006249 CONDUIT    342.97     0  01:55      1.04    0.99    0.90
  WS02006249WS02006248 CONDUIT    289.55     0  01:45      1.12    1.59    0.90
  WS02006248WS02006247 CONDUIT    283.16     0  01:45      1.09    0.62    0.96
  WS02006247WS02006245 CONDUIT    284.75     0  03:11      1.04    2.26    1.00
  WS02006245WS02006243 CONDUIT    259.71     0  01:44      1.08    0.77    1.00
  WS02006243WS02006242 CONDUIT    243.40     0  03:09      0.83    0.52    1.00
  WS02006242WS02006240 CONDUIT    244.43     0  03:10      0.77    0.97    1.00
  WS02006240WS02006239 CONDUIT    245.19     0  03:10      0.84    0.77    1.00
  WS02006239WS02006238 CONDUIT    246.78     0  03:10      0.77    0.79    1.00
  WS02006238WS02006235 CONDUIT    247.26     0  04:10      1.25    0.55    1.00
  WS02006235WS02006234 CONDUIT    324.80     0  03:10      0.95    3.43    1.00
  WS02006234WS02006232 CONDUIT    326.14     0  03:10      1.13    0.66    1.00
  WS02006232WS02006231 CONDUIT    326.37     0  03:10      0.95    0.68    1.00
  WS02006231WS02006230 CONDUIT    328.91     0  03:12      1.30    4.99    1.00
  WS02006230WS02006229 CONDUIT    342.34     0  03:12      0.89    7.62    1.00
  WS02006228WS02006109 CONDUIT    781.98     0  01:54      1.56    3.42    1.00
  WS02006116WS02004401 CONDUIT    808.25     0  01:55      1.03    1.11    1.00
  WS02006115WS02006116 CONDUIT    808.25     0  01:55      1.03    1.04    1.00
  WS02006113WS02006111 CONDUIT    782.68     0  01:55      2.66    0.94    0.76
  WS02006112WS02006115 CONDUIT    808.32     0  01:55      1.03    0.48    1.00
  WS02006111WS02006112 CONDUIT    783.30     0  01:55      1.79    0.37    0.87
  WS02006110WS02006113 CONDUIT    783.20     0  01:54      1.69    0.71    0.88
  WS02006109WS02006110 CONDUIT    783.18     0  01:54      1.56    1.51    1.00
  WS02004411WS02004412 CONDUIT    807.51     0  01:57      1.15    1.15    0.84
  WS02004401WS02004402 CONDUIT    808.24     0  01:55      1.03    0.97    1.00
  WS02004413WS02003067 CONDUIT    807.50     0  01:57      1.40    0.35    0.69
  WS02004412WS02004413 CONDUIT    807.49     0  01:57      1.08    0.54    0.90
  WS02004410WS02004411 CONDUIT    807.61     0  01:56      1.13    1.10    0.85
  WS02004409WS02004410 CONDUIT    807.86     0  01:56      1.13    1.04    0.85
  WS02004407WS02004409 CONDUIT    808.41     0  01:55      1.67    0.29    0.61
  WS02004406WS02004407 CONDUIT    808.47     0  01:55      1.41    0.36    0.68
  WS02004405WS02004406 CONDUIT    808.45     0  01:55      1.03    1.59    1.00
  WS02004404WS02004405 CONDUIT    808.41     0  01:55      1.03    7.92    1.00
  WS02004403WS02004404 CONDUIT    808.24     0  01:55      1.03    0.58    1.00
  WS02004402WS02004403 CONDUIT    808.25     0  01:55      1.03    1.16    1.00
  WS02004139WS02001211 CONDUIT    286.50     0  02:26      0.81    0.36    0.57
  WS02004138WS02004139 CONDUIT    290.07     0  00:00      3.33    0.06    0.41
  WS02003067WS02003066 CONDUIT    807.53     0  01:57      1.52    0.26    0.48
  WS02001213WS02003059 CONDUIT    297.93     0  02:29      0.80    0.49    0.79
  WS02001212WS02001213 CONDUIT    296.27     0  02:29      1.19    0.46    0.47
  WS02001211WS02001212 CONDUIT    295.13     0  02:28      0.67    0.23    0.63
  WS02003072WS02003073 CONDUIT   1108.41     0  02:01      1.83    2.39    0.53
  WS02003069WS02003072 CONDUIT   1108.37     0  02:01      1.71    0.53    0.56
  WS02003060WS02003069 CONDUIT   1108.07     0  02:00      1.94    0.43    0.50
  WS02003059WS02003060 CONDUIT    300.69     0  02:31      0.82    0.20    0.70
  HS02004901HS02004770 CONDUIT     31.96     0  01:52      0.09    0.12    0.51
  HS02004876HS02004881 CONDUIT    126.38     0  01:55      1.20    1.34    0.15
  HS02004870HS02004876 CONDUIT    102.10     0  01:55      0.82    0.07    0.18
  HS02004842HS02004848 CONDUIT     15.55     0  02:06      0.07    0.01    0.33
  HS02004837HS02004842 CONDUIT     15.96     0  02:07      0.41    0.01    0.35
  HS02004830HS02004837 CONDUIT     62.46     0  01:55      0.66    0.06    0.14
  HS02004824HS02004830 CONDUIT     62.57     0  01:56      0.62    0.08    0.16
  HS02004817HS02004824 CONDUIT    123.43     0  01:59      0.31    0.06    0.58
  HS02004770HS02004777 CONDUIT    165.77     0  01:51      0.46    0.30    0.52
  HS02004799HS02004480 CONDUIT    414.30     0  01:53      1.02    0.52    0.58
  HS02004792HS02004799 CONDUIT    377.21     0  01:52      1.15    0.23    0.47
  HS02004788HS02004792 CONDUIT    218.44     0  01:53      1.24    0.14    0.25
  HS02004785HS02004788 CONDUIT    165.54     0  01:53      0.86    1.25    0.27
  HS02004777HS02004785 CONDUIT    165.44     0  01:52      0.54    0.20    0.44
  HS02004480HS02004478 CONDUIT    492.14     0  01:53      1.52    2.07    0.46
  HS02004479HS02004480 CONDUIT     78.30     0  01:54      0.27    0.08    0.55
  HS02004862HS02004870 CONDUIT     77.52     0  01:55      0.79    0.08    0.14
  HS02004848HS02004852 CONDUIT     36.10     0  01:55      0.52    0.04    0.10
  HS02004856HS02004862 CONDUIT     54.46     0  01:55      0.59    0.05    0.13
  HS02004852HS02004856 CONDUIT     36.15     0  01:56      0.33    0.04    0.16
  HS02004802HS02004478 CONDUIT    170.22     0  01:58      0.53    0.15    0.47
  HS02004478WS02006287 CONDUIT    655.81     0  01:54      2.08    0.18    0.35
  HS02004817HS02004807 CONDUIT    125.36     0  01:59      0.24    0.07    0.75
  HS02004807HS02004802 CONDUIT    169.25     0  01:58      0.47    0.32    0.53
  YS02001759YS02001757 CONDUIT    871.97     0  02:04      1.11    0.62    1.00
  YS02001762YS02001759 CONDUIT    436.98     0  02:04      0.56    0.50    1.00
  YS02001765YS02001762 CONDUIT    437.17     0  02:04      0.56    0.41    1.00
  YS02001770YS02001767 CONDUIT    436.96     0  02:04      0.56    1.73    1.00
  YS02001774YS02001770 CONDUIT    620.32     0  03:00      0.79    0.40    1.00
  YS02001779YS02001774 CONDUIT    620.32     0  03:00      0.79    0.31    1.00
  YS02001649YS02001757 CONDUIT    977.72     0  02:00      1.24    0.59    1.00
  YS02001767YS02001765 CONDUIT    437.42     0  02:04      0.56    0.55    1.00
  YS02006561YS02001783 CONDUIT   1081.42     0  01:57      2.26    0.56    1.00
  YS02001783YS02001784 CONDUIT   1081.30     0  01:57      2.15    1.49    1.00
  YS02001784YS02001785 CONDUIT   1082.17     0  01:57      2.16    2.52    1.00
  YS02001788YS02001790 CONDUIT   1055.55     0  01:56      2.61    0.78    1.00
  YS02001790YS02001791 CONDUIT   1092.28     0  01:56      3.25    1.19    1.00
  YS02001791YS02001793 CONDUIT   1018.48     0  01:55      6.22    0.44    1.00
  YS02001910YS02001907 CONDUIT    669.73     0  01:59      0.85    0.38    1.00
  YS02001786YS02001788 CONDUIT   1065.44     0  01:56      2.36    2.05    1.00
  YS02001915YS02001910 CONDUIT    669.86     0  01:59      0.85    0.33    1.00
  YS02001918YS02001915 CONDUIT    392.03     0  01:59      0.50    0.22    1.00
  YS02001923YS02001920 CONDUIT    388.74     0  01:59      0.78    0.17    1.00
  YS02001926YS02001923 CONDUIT    319.76     0  02:00      0.87    0.46    1.00
  YS02001929YS02001926 CONDUIT    274.90     0  01:59      0.93    0.13    1.00
  YS02001920YS02001918 CONDUIT    391.89     0  01:59      0.76    0.38    1.00
  YS02001629YS02163301 CONDUIT    225.63     0  01:48      0.29    0.28    1.00
  YS02001619YS02001622 CONDUIT    336.67     0  02:16      0.76    0.50    1.00
  YS02001622YS02001625 CONDUIT    336.60     0  02:16      0.43    0.18    1.00
  YS02001625YS02001629 CONDUIT    210.17     0  01:47      0.31    0.10    1.00
  YS02163301YS02001633 CONDUIT    225.28     0  01:48      0.29    0.21    1.00
  YS02163601YS02164001 CONDUIT    417.67     0  01:51      0.53    0.37    1.00
  YS02164001YS02001641 CONDUIT    417.79     0  01:51      0.53    0.57    1.00
  YS02001641YS02001644 CONDUIT    417.62     0  01:51      0.53    1.35    1.00
  YS02001647YS02001649 CONDUIT    692.20     0  02:55      0.88    0.37    1.00
  YS02006553YS02006556 CONDUIT    683.09     0  03:22      0.87    0.58    1.00
  YS02006556YS02006558 CONDUIT    683.33     0  03:22      0.87    0.54    1.00
  YSB6556YSB1171       CONDUIT     43.98     0  01:54      0.13    0.05    0.82
  YS02001907YS02006553 CONDUIT    682.97     0  03:22      0.76    0.80    1.00
  YS02006558YS02006561 CONDUIT   1096.61     0  01:57      3.88    2.42    1.00
  YS02001633YS02163601 CONDUIT    417.56     0  01:51      0.53    0.44    1.00
  YS02001644YS02001647 CONDUIT    692.25     0  02:55      0.88    0.41    1.00
  YS02001745YS02001748 CONDUIT    396.93     0  02:16      1.73    0.15    0.96
  YS02001748YS02001751 CONDUIT    396.45     0  02:16      1.26    0.20    1.00
  YS02001751YS02001754 CONDUIT    396.59     0  02:16      1.03    0.19    1.00
  YS02001754YS02001757 CONDUIT    396.81     0  02:16      0.51    0.16    1.00
  YS02001882YS02001884 CONDUIT     18.61     0  01:52      0.12    0.02    1.00
  YS02001884YS02001887 CONDUIT     45.56     0  01:53      0.09    0.06    1.00
  YS02001890YS02001895 CONDUIT    521.61     0  01:58      0.66    0.24    1.00
  YS02001895YS02001898 CONDUIT    522.06     0  01:58      0.66    0.91    1.00
  YS02001898YS02001901 CONDUIT    522.82     0  01:58      0.67    0.34    1.00
  YS02001901YS02001904 CONDUIT    523.35     0  01:57      0.67    0.81    1.00
  YS02001904YS02001907 CONDUIT    524.25     0  01:57      0.67    0.18    1.00
  YS02001887YS02001890 CONDUIT    606.19     0  02:15      0.77    1.04    1.00
  YS02001652YS02001649 CONDUIT    476.15     0  02:17      0.61    0.24    1.00
  YS02001655YS02001652 CONDUIT    475.69     0  02:17      1.09    0.23    1.00
  YS02001658YS02001655 CONDUIT    475.64     0  02:17      1.45    0.20    1.00
  YS02001661YS02001658 CONDUIT    501.92     0  02:13      1.85    0.20    1.00
  YS02001664YS02001661 CONDUIT    772.96     0  02:05      1.75    0.24    0.76
  YSB1154YSB6556       CONDUIT     43.64     0  01:53      0.17    0.08    0.72
  YSB1174YSB1171       CONDUIT     35.14     0  01:50      0.10    0.05    0.83
  YSB1171HS02004479    CONDUIT     78.00     0  01:53      0.54    0.05    0.67
  HS02004881HS02006253 CONDUIT    139.58     0  01:55      2.11    0.03    0.26
  YS02001793JiankangQianchi CONDUIT   1200.61     0  04:41     14.64    0.10    1.00
  YS02001757CaochengTiaoxuchi CONDUIT   2138.72     0  02:04      3.75    0.94    1.00
  WSF200WS02003060     CONDUIT    807.14     0  01:58      1.94    0.18    0.40
  1                    CONDUIT   1110.35     0  02:02      3.42    0.39    0.43
  2                    CONDUIT    172.75     0  01:55      5.62    0.41    0.45
  3                    CONDUIT    512.48     0  03:00      9.84    0.82    0.69
  4                    CONDUIT      0.00     0  00:00      0.00    0.00    0.00
  CC-Pump-1            PUMP         0.00     0  00:00              0.00
  CC-Pump-2            PUMP       200.00     0  01:40              1.00
  JK-Pump-1            PUMP       300.00     0  04:20              1.00
  JK-Pump-2            PUMP       300.00     0  00:00              1.00
  XR-Pump-1            PUMP        95.00     0  00:00              1.00
  XR-Pump-2            PUMP         0.00     0  00:00              0.00
  XR-Pump-3            PUMP        95.00     0  00:00              1.00
  XR-Pump-4            PUMP        95.00     0  00:00              1.00
  
  
  ***************************
  Flow Classification Summary
  ***************************
  
  -------------------------------------------------------------------------------------
                      Adjusted    ---------- Fraction of Time in Flow Class ---------- 
                       /Actual         Up    Down  Sub   Sup   Up    Down  Norm  Inlet 
  Conduit               Length    Dry  Dry   Dry   Crit  Crit  Crit  Crit  Ltd   Ctrl  
  -------------------------------------------------------------------------------------
  WS02003066WSF200        1.00   0.06  0.00  0.00  0.00  0.94  0.00  0.00  0.58  0.00
  WS02006287WS02006284    1.00   0.04  0.01  0.00  0.59  0.36  0.00  0.00  0.65  0.00
  WS02006284WS02006280    1.00   0.04  0.00  0.00  0.00  0.00  0.00  0.96  0.00  0.00
  WS02006280WS02006229    1.00   0.04  0.00  0.00  0.00  0.00  0.00  0.96  0.00  0.00
  WS02006229WS02006228    1.00   0.00  0.00  0.00  0.99  0.00  0.00  0.01  0.00  0.00
  WS02006256WS02006235    1.00   0.00  0.00  0.00  1.00  0.00  0.00  0.00  0.00  0.00
  WS02006253WS02006251    1.00   0.03  0.01  0.00  0.96  0.00  0.00  0.00  0.00  0.00
  WS02006252WS02006251    1.00   0.06  0.00  0.00  0.00  0.00  0.94  0.00  0.00  0.00
  WS02006251WS02006249    1.00   0.00  0.00  0.00  1.00  0.00  0.00  0.00  0.18  0.00
  WS02006249WS02006248    1.00   0.00  0.02  0.00  0.94  0.00  0.04  0.00  0.00  0.00
  WS02006248WS02006247    1.00   0.02  0.00  0.00  0.98  0.00  0.00  0.00  0.06  0.00
  WS02006247WS02006245    1.00   0.02  0.00  0.00  0.98  0.00  0.00  0.00  0.00  0.00
  WS02006245WS02006243    1.00   0.01  0.00  0.00  0.96  0.00  0.00  0.03  0.01  0.00
  WS02006243WS02006242    1.00   0.01  0.00  0.00  0.99  0.00  0.00  0.00  0.16  0.00
  WS02006242WS02006240    1.00   0.00  0.00  0.00  1.00  0.00  0.00  0.00  0.00  0.00
  WS02006240WS02006239    1.00   0.00  0.00  0.00  0.97  0.00  0.00  0.03  0.01  0.00
  WS02006239WS02006238    1.00   0.00  0.00  0.00  1.00  0.00  0.00  0.00  0.00  0.00
  WS02006238WS02006235    1.00   0.00  0.00  0.00  1.00  0.00  0.00  0.00  0.00  0.00
  WS02006235WS02006234    1.00   0.00  0.00  0.00  0.97  0.00  0.03  0.00  0.00  0.00
  WS02006234WS02006232    1.00   0.00  0.00  0.00  1.00  0.00  0.00  0.00  0.05  0.00
  WS02006232WS02006231    1.00   0.00  0.00  0.00  0.99  0.00  0.00  0.00  0.00  0.00
  WS02006231WS02006230    1.00   0.00  0.00  0.00  0.47  0.00  0.53  0.00  0.00  0.00
  WS02006230WS02006229    1.00   0.00  0.00  0.00  0.99  0.00  0.00  0.01  0.01  0.00
  WS02006228WS02006109    1.00   0.00  0.00  0.00  1.00  0.00  0.00  0.00  0.00  0.00
  WS02006116WS02004401    1.00   0.02  0.00  0.00  0.98  0.00  0.00  0.00  0.00  0.00
  WS02006115WS02006116    1.00   0.02  0.00  0.00  0.97  0.00  0.00  0.01  0.00  0.00
  WS02006113WS02006111    1.00   0.02  0.00  0.00  0.05  0.93  0.00  0.00  0.10  0.00
  WS02006112WS02006115    1.00   0.02  0.00  0.00  0.98  0.00  0.00  0.00  0.00  0.00
  WS02006111WS02006112    1.00   0.02  0.00  0.00  0.98  0.00  0.00  0.00  0.88  0.00
  WS02006110WS02006113    1.00   0.01  0.01  0.00  0.98  0.00  0.00  0.00  0.00  0.00
  WS02006109WS02006110    1.00   0.00  0.01  0.00  0.98  0.00  0.01  0.00  0.00  0.00
  WS02004411WS02004412    1.00   0.04  0.00  0.00  0.96  0.00  0.00  0.00  0.00  0.00
  WS02004401WS02004402    1.00   0.02  0.00  0.00  0.98  0.00  0.00  0.00  0.00  0.00
  WS02004413WS02003067    1.00   0.04  0.01  0.00  0.00  0.00  0.95  0.00  0.00  0.00
  WS02004412WS02004413    1.00   0.04  0.00  0.00  0.96  0.00  0.00  0.00  0.03  0.00
  WS02004410WS02004411    1.00   0.04  0.00  0.00  0.96  0.00  0.00  0.00  0.03  0.00
  WS02004409WS02004410    1.00   0.04  0.00  0.00  0.96  0.00  0.00  0.00  0.03  0.00
  WS02004407WS02004409    1.00   0.04  0.00  0.00  0.96  0.00  0.00  0.00  0.89  0.00
  WS02004406WS02004407    1.00   0.00  0.03  0.00  0.96  0.00  0.00  0.00  0.00  0.00
  WS02004405WS02004406    1.00   0.00  0.00  0.00  1.00  0.00  0.00  0.00  0.01  0.00
  WS02004404WS02004405    1.00   0.00  0.00  0.00  1.00  0.00  0.00  0.00  0.00  0.00
  WS02004403WS02004404    1.00   0.00  0.02  0.00  0.98  0.00  0.00  0.00  0.01  0.00
  WS02004402WS02004403    1.00   0.02  0.00  0.00  0.98  0.00  0.00  0.00  0.00  0.00
  WS02004139WS02001211    1.00   0.00  0.00  0.00  1.00  0.00  0.00  0.00  0.00  0.00
  WS02004138WS02004139    1.00   0.00  0.00  0.00  0.99  0.01  0.00  0.00  1.00  0.00
  WS02003067WS02003066    1.00   0.05  0.01  0.00  0.94  0.00  0.00  0.00  0.00  0.00
  WS02001213WS02003059    1.00   0.00  0.00  0.00  0.99  0.00  0.00  0.00  0.00  0.00
  WS02001212WS02001213    1.00   0.00  0.00  0.00  0.91  0.00  0.08  0.00  0.00  0.00
  WS02001211WS02001212    1.00   0.00  0.00  0.00  1.00  0.00  0.00  0.00  0.00  0.00
  WS02003072WS02003073    1.00   0.00  0.00  0.00  0.00  0.00  0.00  1.00  0.00  0.00
  WS02003069WS02003072    1.00   0.00  0.00  0.00  0.99  0.01  0.00  0.00  0.19  0.00
  WS02003060WS02003069    1.00   0.00  0.00  0.00  0.98  0.02  0.00  0.00  0.12  0.00
  WS02003059WS02003060    1.00   0.00  0.00  0.00  1.00  0.00  0.00  0.00  0.01  0.00
  HS02004901HS02004770    1.00   0.04  0.00  0.00  0.96  0.00  0.00  0.00  0.00  0.00
  HS02004876HS02004881    1.00   0.02  0.00  0.00  0.84  0.14  0.00  0.00  0.00  0.00
  HS02004870HS02004876    1.00   0.00  0.00  0.00  0.99  0.00  0.00  0.00  0.95  0.00
  HS02004842HS02004848    1.00   0.00  0.04  0.00  0.96  0.00  0.00  0.00  0.57  0.00
  HS02004837HS02004842    1.00   0.00  0.00  0.00  0.99  0.01  0.00  0.00  0.11  0.00
  HS02004830HS02004837    1.00   0.00  0.00  0.00  1.00  0.00  0.00  0.00  0.99  0.00
  HS02004824HS02004830    1.00   0.00  0.00  0.00  1.00  0.00  0.00  0.00  0.03  0.00
  HS02004817HS02004824    1.00   0.00  0.00  0.00  1.00  0.00  0.00  0.00  0.94  0.00
  HS02004770HS02004777    1.00   0.00  0.04  0.00  0.96  0.00  0.00  0.00  0.03  0.00
  HS02004799HS02004480    1.00   0.00  0.02  0.00  0.95  0.00  0.02  0.00  0.00  0.00
  HS02004792HS02004799    1.00   0.00  0.00  0.00  0.99  0.01  0.00  0.00  0.98  0.00
  HS02004788HS02004792    1.00   0.00  0.00  0.00  0.99  0.01  0.00  0.00  0.98  0.00
  HS02004785HS02004788    1.00   0.00  0.00  0.00  1.00  0.00  0.00  0.00  0.00  0.00
  HS02004777HS02004785    1.00   0.00  0.00  0.00  1.00  0.00  0.00  0.00  0.13  0.00
  HS02004480HS02004478    1.00   0.04  0.00  0.00  0.65  0.00  0.00  0.31  0.00  0.00
  HS02004479HS02004480    1.00   0.03  0.00  0.00  0.97  0.00  0.00  0.00  0.12  0.00
  HS02004862HS02004870    1.00   0.00  0.00  0.00  1.00  0.00  0.00  0.00  0.04  0.00
  HS02004848HS02004852    1.00   0.04  0.00  0.00  0.96  0.00  0.00  0.00  0.78  0.00
  HS02004856HS02004862    1.00   0.00  0.05  0.00  0.95  0.00  0.00  0.00  0.82  0.00
  HS02004852HS02004856    1.00   0.04  0.00  0.00  0.96  0.00  0.00  0.00  0.77  0.00
  HS02004802HS02004478    1.00   0.04  0.00  0.00  0.96  0.00  0.00  0.00  0.03  0.00
  HS02004478WS02006287    1.00   0.05  0.00  0.00  0.69  0.26  0.00  0.00  0.62  0.00
  HS02004817HS02004807    1.00   0.00  0.04  0.00  0.96  0.00  0.00  0.00  0.01  0.00
  HS02004807HS02004802    1.00   0.04  0.00  0.00  0.96  0.00  0.00  0.00  0.00  0.00
  YS02001759YS02001757    1.00   0.00  0.00  0.00  1.00  0.00  0.00  0.00  0.16  0.00
  YS02001762YS02001759    1.00   0.00  0.00  0.00  1.00  0.00  0.00  0.00  0.03  0.00
  YS02001765YS02001762    1.00   0.00  0.00  0.00  1.00  0.00  0.00  0.00  0.14  0.00
  YS02001770YS02001767    1.00   0.00  0.00  0.00  1.00  0.00  0.00  0.00  0.00  0.00
  YS02001774YS02001770    1.00   0.00  0.04  0.00  0.96  0.00  0.00  0.00  0.03  0.00
  YS02001779YS02001774    1.00   0.00  0.00  0.00  1.00  0.00  0.00  0.00  0.18  0.00
  YS02001649YS02001757    1.00   0.00  0.00  0.00  1.00  0.00  0.00  0.00  0.16  0.00
  YS02001767YS02001765    1.00   0.00  0.00  0.00  1.00  0.00  0.00  0.00  0.00  0.00
  YS02006561YS02001783    1.00   0.05  0.00  0.00  0.39  0.56  0.00  0.00  0.46  0.00
  YS02001783YS02001784    1.00   0.00  0.05  0.00  0.95  0.00  0.00  0.00  0.00  0.00
  YS02001784YS02001785    1.00   0.00  0.00  0.00  1.00  0.00  0.00  0.00  0.17  0.00
  YS02001788YS02001790    1.00   0.00  0.00  0.00  0.47  0.53  0.00  0.00  0.46  0.00
  YS02001790YS02001791    1.00   0.00  0.00  0.00  0.46  0.54  0.00  0.00  0.40  0.00
  YS02001791YS02001793    1.00   0.00  0.00  0.00  0.49  0.51  0.00  0.00  0.04  0.00
  YS02001910YS02001907    1.00   0.00  0.00  0.00  0.98  0.00  0.00  0.02  0.12  0.00
  YS02001786YS02001788    1.00   0.00  0.00  0.00  0.43  0.57  0.00  0.00  0.00  0.00
  YS02001915YS02001910    1.00   0.00  0.00  0.00  0.99  0.01  0.00  0.00  0.16  0.00
  YS02001918YS02001915    1.00   0.00  0.01  0.00  0.98  0.01  0.00  0.00  0.52  0.00
  YS02001923YS02001920    1.00   0.00  0.00  0.00  1.00  0.00  0.00  0.00  0.74  0.00
  YS02001926YS02001923    1.00   0.00  0.03  0.00  0.26  0.00  0.71  0.00  0.00  0.00
  YS02001929YS02001926    1.00   0.00  0.04  0.00  0.96  0.00  0.00  0.00  0.66  0.00
  YS02001920YS02001918    1.00   0.00  0.01  0.00  0.99  0.00  0.00  0.00  0.00  0.00
  YS02001629YS02163301    1.00   0.04  0.00  0.00  0.95  0.00  0.00  0.00  0.00  0.00
  YS02001619YS02001622    1.00   0.04  0.00  0.00  0.96  0.00  0.00  0.00  0.00  0.00
  YS02001622YS02001625    1.00   0.04  0.00  0.00  0.96  0.00  0.00  0.00  0.05  0.00
  YS02001625YS02001629    1.00   0.04  0.01  0.00  0.94  0.00  0.01  0.00  0.00  0.00
  YS02163301YS02001633    1.00   0.00  0.04  0.00  0.96  0.00  0.00  0.00  0.00  0.00
  YS02163601YS02164001    1.00   0.00  0.03  0.00  0.97  0.00  0.00  0.00  0.00  0.00
  YS02164001YS02001641    1.00   0.01  0.02  0.00  0.97  0.00  0.00  0.00  0.06  0.00
  YS02001641YS02001644    1.00   0.00  0.01  0.00  0.99  0.00  0.00  0.00  0.00  0.00
  YS02001647YS02001649    1.00   0.00  0.05  0.00  0.95  0.00  0.00  0.00  0.01  0.00
  YS02006553YS02006556    1.00   0.01  0.00  0.00  0.99  0.00  0.00  0.00  0.03  0.00
  YS02006556YS02006558    1.00   0.00  0.00  0.00  1.00  0.00  0.00  0.00  0.00  0.00
  YSB6556YSB1171          1.00   0.03  0.01  0.00  0.96  0.00  0.00  0.00  0.00  0.00
  YS02001907YS02006553    1.00   0.00  0.02  0.00  0.98  0.00  0.00  0.00  0.00  0.00
  YS02006558YS02006561    1.00   0.05  0.00  0.00  0.28  0.67  0.00  0.00  0.42  0.00
  YS02001633YS02163601    1.00   0.00  0.01  0.00  0.99  0.00  0.00  0.00  0.15  0.00
  YS02001644YS02001647    1.00   0.00  0.05  0.00  0.95  0.00  0.00  0.00  0.00  0.00
  YS02001745YS02001748    1.00   0.00  0.00  0.00  0.92  0.00  0.00  0.08  0.01  0.00
  YS02001748YS02001751    1.00   0.00  0.00  0.00  0.98  0.02  0.00  0.00  0.14  0.00
  YS02001751YS02001754    1.00   0.00  0.00  0.00  0.95  0.00  0.00  0.05  0.01  0.00
  YS02001754YS02001757    1.00   0.00  0.00  0.00  0.99  0.01  0.00  0.00  0.18  0.00
  YS02001882YS02001884    1.00   0.04  0.00  0.00  0.96  0.00  0.00  0.00  0.00  0.00
  YS02001884YS02001887    1.00   0.03  0.01  0.00  0.96  0.00  0.00  0.00  0.00  0.00
  YS02001890YS02001895    1.00   0.00  0.04  0.00  0.95  0.00  0.00  0.00  0.00  0.00
  YS02001895YS02001898    1.00   0.05  0.00  0.00  0.95  0.00  0.01  0.00  0.00  0.00
  YS02001898YS02001901    1.00   0.05  0.00  0.00  0.95  0.00  0.00  0.00  0.01  0.00
  YS02001901YS02001904    1.00   0.05  0.00  0.00  0.95  0.00  0.00  0.00  0.00  0.00
  YS02001904YS02001907    1.00   0.00  0.04  0.00  0.95  0.00  0.00  0.00  0.00  0.00
  YS02001887YS02001890    1.00   0.00  0.00  0.00  0.98  0.00  0.02  0.00  0.00  0.00
  YS02001652YS02001649    1.00   0.00  0.00  0.00  1.00  0.00  0.00  0.00  0.16  0.00
  YS02001655YS02001652    1.00   0.00  0.00  0.00  0.95  0.00  0.00  0.05  0.01  0.00
  YS02001658YS02001655    1.00   0.00  0.04  0.00  0.94  0.02  0.00  0.00  0.02  0.00
  YS02001661YS02001658    1.00   0.04  0.00  0.00  0.92  0.04  0.00  0.00  0.00  0.00
  YS02001664YS02001661    1.00   0.04  0.00  0.00  0.92  0.04  0.00  0.00  0.10  0.00
  YSB1154YSB6556          1.00   0.04  0.00  0.00  0.96  0.00  0.00  0.00  0.02  0.00
  YSB1174YSB1171          1.00   0.03  0.01  0.00  0.97  0.00  0.00  0.00  0.00  0.00
  YSB1171HS02004479       1.00   0.03  0.00  0.00  0.97  0.00  0.00  0.00  0.11  0.00
  HS02004881HS02006253    1.00   0.03  0.00  0.00  0.85  0.03  0.00  0.09  0.74  0.00
  YS02001793JiankangQianchi    1.00   0.00  0.00  0.00  0.62  0.37  0.00  0.00  0.10  0.00
  YS02001757CaochengTiaoxuchi    1.00   0.00  0.06  0.00  0.89  0.05  0.00  0.00  0.00  0.00
  WSF200WS02003060        1.00   0.00  0.06  0.00  0.74  0.20  0.00  0.00  0.06  0.00
  1                       1.00   0.00  0.00  0.00  0.00  1.00  0.00  0.00  0.42  0.00
  2                       1.00   0.77  0.00  0.00  0.00  0.23  0.00  0.00  0.04  0.00
  3                       1.00   0.06  0.00  0.00  0.00  0.94  0.00  0.00  0.19  0.00
  4                       1.00   1.00  0.00  0.00  0.00  0.00  0.00  0.00  0.00  0.00
  
  
  *************************
  Conduit Surcharge Summary
  *************************
  
  ----------------------------------------------------------------------------
                                                           Hours        Hours 
                         --------- Hours Full --------   Above Full   Capacity
  Conduit                Both Ends  Upstream  Dnstream   Normal Flow   Limited
  ----------------------------------------------------------------------------
  WS02006229WS02006228        1.67      1.68      1.67      5.82         1.67
  WS02006256WS02006235        6.35      6.35      7.50      4.50         0.01
  WS02006249WS02006248        0.01      0.01      0.01      5.11         0.01
  WS02006248WS02006247        0.01      0.01      0.13      0.01         0.01
  WS02006247WS02006245        0.15      0.21      0.15      5.78         0.14
  WS02006245WS02006243        0.20      0.20      0.33      0.01         0.01
  WS02006243WS02006242        0.37      0.37      1.39      0.01         0.01
  WS02006242WS02006240        0.85      0.85      1.45      0.01         0.01
  WS02006240WS02006239        1.07      1.07      1.39      0.01         0.01
  WS02006239WS02006238        1.47      1.47      1.50      0.01         0.01
  WS02006238WS02006235        1.49      1.49      1.52      0.01         0.01
  WS02006235WS02006234        1.41      1.41      1.48      6.37         0.04
  WS02006234WS02006232        1.46      1.46      1.55      0.01         0.01
  WS02006232WS02006231        0.90      0.90      1.55      0.01         0.01
  WS02006231WS02006230        0.78      0.78      1.09      6.36         0.02
  WS02006230WS02006229        1.98      5.22      1.98      6.45         1.97
  WS02006228WS02006109        1.68      1.70      1.68      6.14         1.68
  WS02006116WS02004401        0.55      0.55      0.57      0.43         0.41
  WS02006115WS02006116        0.32      0.33      0.34      0.21         0.21
  WS02006112WS02006115        0.28      0.28      1.53      0.01         0.01
  WS02006111WS02006112        0.01      0.01      5.92      0.01         0.01
  WS02006110WS02006113        0.01      0.01      1.69      0.01         0.01
  WS02006109WS02006110        1.44      1.44      1.70      1.44         0.01
  WS02004411WS02004412        0.01      0.01      0.01      0.52         0.01
  WS02004401WS02004402        0.57      0.57      0.60      0.01         0.01
  WS02004410WS02004411        0.01      0.01      0.01      0.40         0.01
  WS02004409WS02004410        0.01      0.01      0.01      0.23         0.01
  WS02004406WS02004407        0.01      0.01      0.72      0.01         0.01
  WS02004405WS02004406        0.72      0.77      0.72      1.49         0.72
  WS02004404WS02004405        0.77      0.83      0.77      6.25         0.77
  WS02004403WS02004404        0.61      0.61      0.83      0.01         0.01
  WS02004402WS02004403        0.60      0.60      0.61      0.54         0.53
  WS02003072WS02003073        0.01      0.01      0.01      6.05         0.01
  HS02004876HS02004881        0.01      0.01      0.01      0.49         0.01
  HS02004785HS02004788        0.01      0.01      0.01      0.35         0.01
  HS02004480HS02004478        0.01      0.01      0.01      0.79         0.01
  YS02001759YS02001757        6.09      6.09      6.12      0.01         0.01
  YS02001762YS02001759        6.08      6.08      6.09      0.01         0.01
  YS02001765YS02001762        6.08      6.08      6.08      0.01         0.01
  YS02001770YS02001767        6.07      6.07      6.07      0.43         0.72
  YS02001774YS02001770        6.07      6.07      6.08      0.01         0.01
  YS02001779YS02001774        6.04      6.04      6.08      0.01         0.01
  YS02001649YS02001757        6.08      6.08      6.12      0.01         0.01
  YS02001767YS02001765        6.07      6.07      6.08      0.01         0.01
  YS02006561YS02001783        1.61      1.61      2.12      0.01         0.01
  YS02001783YS02001784        2.11      2.12      2.18      2.02         1.91
  YS02001784YS02001785        2.05      2.18      2.05      2.74         2.05
  YS02001788YS02001790        2.04      2.04      2.43      0.01         0.01
  YS02001790YS02001791        2.43      2.43      2.47      1.53         1.48
  YS02001791YS02001793        2.47      2.47      3.11      0.01         0.01
  YS02001910YS02001907        1.94      1.94      2.26      0.01         0.01
  YS02001786YS02001788        2.04      2.05      2.04      2.41         2.04
  YS02001915YS02001910        1.75      1.75      1.94      0.01         0.01
  YS02001918YS02001915        1.51      1.51      1.75      0.01         0.01
  YS02001923YS02001920        1.33      1.33      1.55      0.01         0.01
  YS02001926YS02001923        0.01      0.01      0.01      0.01         0.01
  YS02001929YS02001926        0.01      0.01      0.01      0.01         0.01
  YS02001920YS02001918        1.51      1.51      1.55      0.01         0.01
  YS02001629YS02163301        6.06      6.06      6.07      0.01         0.01
  YS02001619YS02001622        6.02      6.02      6.02      0.01         0.01
  YS02001622YS02001625        6.02      6.02      6.05      0.01         0.01
  YS02001625YS02001629        6.02      6.02      6.05      0.01         0.01
  YS02163301YS02001633        6.07      6.07      6.08      0.01         0.01
  YS02163601YS02164001        6.08      6.08      6.09      0.01         0.01
  YS02164001YS02001641        6.08      6.08      6.08      0.01         0.02
  YS02001641YS02001644        6.08      6.08      6.08      2.21         2.13
  YS02001647YS02001649        6.05      6.05      6.08      0.01         0.01
  YS02006553YS02006556        2.11      2.11      2.31      0.01         0.01
  YS02006556YS02006558        2.18      2.18      2.37      0.01         0.01
  YSB6556YSB1171              0.01      0.01      0.14      0.01         0.01
  YS02001907YS02006553        2.76      2.76      2.95      0.01         0.01
  YS02006558YS02006561        1.78      2.09      1.78      2.63         1.78
  YS02001633YS02163601        6.08      6.08      6.09      0.01         0.01
  YS02001644YS02001647        6.05      6.05      6.08      0.01         0.01
  YS02001745YS02001748        0.01      0.01      5.99      0.01         0.01
  YS02001748YS02001751        6.00      6.00      6.02      0.01         0.01
  YS02001751YS02001754        6.02      6.02      6.04      0.01         0.01
  YS02001754YS02001757        6.05      6.05      6.12      0.01         0.01
  YS02001882YS02001884        1.76      1.76      1.79      0.01         0.01
  YS02001884YS02001887        1.84      1.84      1.87      0.01         0.01
  YS02001890YS02001895        1.73      1.73      1.96      0.01         0.01
  YS02001895YS02001898        1.71      1.72      1.73      0.01         0.01
  YS02001898YS02001901        1.74      1.74      1.84      0.01         0.01
  YS02001901YS02001904        1.81      1.81      1.84      0.01         0.01
  YS02001904YS02001907        1.81      1.81      2.34      0.01         0.01
  YS02001887YS02001890        1.90      1.90      1.92      0.20         0.01
  YS02001652YS02001649        6.06      6.06      6.08      0.01         0.01
  YS02001655YS02001652        6.02      6.02      6.05      0.01         0.01
  YS02001658YS02001655        5.99      5.99      6.02      0.01         0.01
  YS02001661YS02001658        0.23      0.23      5.99      0.01         0.01
  YS02001664YS02001661        0.01      0.01      1.92      0.01         0.01
  YS02001793JiankangQianchi        2.98      2.98      4.00      0.01         0.01
  YS02001757CaochengTiaoxuchi        5.60      5.60      6.12      0.01         0.01
  
  
  ***************
  Pumping Summary
  ***************
  
  ---------------------------------------------------------------------------------------------------------
                                                  Min       Avg       Max     Total     Power    % Time Off
                        Percent   Number of      Flow      Flow      Flow    Volume     Usage    Pump Curve
  Pump                 Utilized   Start-Ups       LPS       LPS       LPS  10^6 ltr     Kw-hr    Low   High
  ---------------------------------------------------------------------------------------------------------
  CC-Pump-1                0.00           0      0.00      0.00      0.00     0.000      0.00    0.0    0.0
  CC-Pump-2               79.27           2      0.00    184.28    200.00     4.089      3.57    0.0    5.1
  JK-Pump-1               51.05           8      0.00    143.62    300.00     1.615     19.10    0.0    0.0
  JK-Pump-2              100.00           2      0.00    214.86    300.00     5.018     50.26    0.0    0.0
  XR-Pump-1               80.84           9      0.00     70.64     95.00     1.596     10.25    0.0    0.0
  XR-Pump-2                0.00           0      0.00      0.00      0.00     0.000      0.00    0.0    0.0
  XR-Pump-3              100.00           2      0.00     92.66     95.00     2.622     17.23    0.0    0.0
  XR-Pump-4              100.00           3      0.00     86.52     95.00     2.337     14.51    0.0    0.0
  

  Analysis begun on:  Thu Jan  6 16:25:37 2022
  Analysis ended on:  Thu Jan  6 16:25:41 2022
  Total elapsed time: 00:00:04