
  EPA STORM WATER MANAGEMENT MODEL - VERSION 5.1 (Build 5.3.0.dev0)
  --------------------------------------------------------------

  WARNING 04: minimum elevation drop used for Conduit WS02004404WS02004405
  WARNING 03: negative offset ignored for Link YS02001904YS02001907
  
  *********************************************************
  NOTE: The summary statistics displayed in this report are
  based on results found at every computational time step,  
  not just on results from each reporting time step.
  *********************************************************
  
  ****************
  Analysis Options
  ****************
  Flow Units ............... LPS
  Process Models:
    Rainfall/Runoff ........ YES
    RDII ................... NO
    Snowmelt ............... NO
    Groundwater ............ NO
    Flow Routing ........... YES
    Ponding Allowed ........ NO
    Water Quality .......... NO
  Infiltration Method ...... HORTON
  Flow Routing Method ...... DYNWAVE
  Surcharge Method ......... EXTRAN
  Starting Date ............ 08/28/2015 08:00:00
  Ending Date .............. 08/28/2015 15:50:00
  Antecedent Dry Days ...... 8.0
  Report Time Step ......... 00:01:00
  Wet Time Step ............ 00:01:00
  Dry Time Step ............ 00:01:00
  Routing Time Step ........ 5.00 sec
  Variable Time Step ....... YES
  Maximum Trials ........... 8
  Number of Threads ........ 4
  Head Tolerance ........... 0.001500 m
  
  
  **************************        Volume         Depth
  Runoff Quantity Continuity     hectare-m            mm
  **************************     ---------       -------
  Total Precipitation ......         7.641        16.729
  Evaporation Loss .........         0.000         0.000
  Infiltration Loss ........         1.880         4.117
  Surface Runoff ...........         4.668        10.221
  Final Storage ............         1.093         2.393
  Continuity Error (%) .....        -0.013
  
  
  **************************        Volume        Volume
  Flow Routing Continuity        hectare-m      10^6 ltr
  **************************     ---------     ---------
  Dry Weather Inflow .......         0.616         6.165
  Wet Weather Inflow .......         4.667        46.670
  Groundwater Inflow .......         0.000         0.000
  RDII Inflow ..............         0.000         0.000
  External Inflow ..........         0.102         1.024
  External Outflow .........         2.249        22.486
  Flooding Loss ............         2.604        26.044
  Evaporation Loss .........         0.000         0.000
  Exfiltration Loss ........         0.000         0.000
  Initial Stored Volume ....         0.076         0.761
  Final Stored Volume ......         0.658         6.580
  Continuity Error (%) .....        -0.900
  
  
  *************************
  Highest Continuity Errors
  *************************
  Node HS02004842 (12.71%)
  Node YS02001884 (11.59%)
  Node JK-storage (-4.17%)
  Node HS02004817 (2.32%)
  Node YSB1171 (2.18%)
  
  
  ***************************
  Time-Step Critical Elements
  ***************************
  Link 3 (53.75%)
  Link WS02006252WS02006251 (41.52%)
  
  
  ********************************
  Highest Flow Instability Indexes
  ********************************
  Link YS02163601YS02164001 (41)
  Link YS02163301YS02001633 (41)
  Link YS02001629YS02163301 (40)
  Link YS02164001YS02001641 (38)
  Link YS02001619YS02001622 (38)
  
  
  *************************
  Routing Time Step Summary
  *************************
  Minimum Time Step           :     0.50 sec
  Average Time Step           :     0.76 sec
  Maximum Time Step           :     5.00 sec
  Percent in Steady State     :    -0.00
  Average Iterations per Step :     4.34
  Percent Not Converging      :    16.15
  
  
  ***************************
  Subcatchment Runoff Summary
  ***************************
  
  ------------------------------------------------------------------------------------------------------------------------------
                            Total      Total      Total      Total     Imperv       Perv      Total       Total     Peak  Runoff
                           Precip      Runon       Evap      Infil     Runoff     Runoff     Runoff      Runoff   Runoff   Coeff
  Subcatchment                 mm         mm         mm         mm         mm         mm         mm    10^6 ltr      LPS
  ------------------------------------------------------------------------------------------------------------------------------
  sub0                      16.73       0.00       0.00       0.97      14.29       0.20      14.50        0.01     3.66   0.867
  sub1                      16.73       0.00       0.00       1.58      13.63       0.26      13.89        0.09    24.51   0.830
  sub2                      16.73       0.00       0.00       5.80       9.63       0.39      10.02        0.09    22.91   0.599
  sub3                      16.73       0.00       0.00       5.88       9.59       0.31       9.90        0.22    50.49   0.592
  sub4                      16.73       0.00       0.00       1.65      13.47       0.19      13.66        0.28    60.01   0.817
  sub5                      16.73       0.00       0.00       0.99      14.24       0.18      14.42        0.16    43.61   0.862
  sub7                      16.73       0.00       0.00       1.26      13.97       0.24      14.21        0.05    13.82   0.849
  sub8                      16.73       0.00       0.00       1.27      13.96       0.23      14.19        0.09    25.44   0.848
  sub9                      16.73       0.00       0.00       1.27      13.96       0.23      14.19        0.07    19.02   0.848
  sub10                     16.73       0.00       0.00       1.13      14.10       0.21      14.30        0.16    42.73   0.855
  sub11                     16.73       0.00       0.00       1.12      14.11       0.21      14.33        0.17    47.25   0.857
  sub12                     16.73       0.00       0.00       1.83      13.37       0.35      13.71        0.12    35.87   0.820
  sub14                     16.73       0.00       0.00       1.27      13.95       0.23      14.19        0.14    37.43   0.848
  sub15                     16.73       0.00       0.00       4.53      10.73       0.49      11.22        0.19    51.47   0.671
  sub16                     16.73       0.00       0.00       4.88      10.29       0.64      10.93        0.11    32.57   0.653
  sub17                     16.73       0.00       0.00       4.74      10.44       0.61      11.05        0.09    26.81   0.661
  sub22                     16.73       0.00       0.00       6.60       8.75       0.59       9.34        0.59   160.16   0.558
  sub23                     16.73       0.00       0.00       5.59       9.67       0.60      10.27        0.49   134.74   0.614
  sub60                     16.73       0.00       0.00       1.94      11.65       0.06      11.71        3.55   386.89   0.700
  sub61                     16.73       0.00       0.00       2.75      11.65       0.09      11.73        3.62   476.87   0.701
  sub62                     16.73       0.00       0.00       1.26      12.72       0.07      12.79        3.93   491.27   0.765
  sub63                     16.73       0.00       0.00       4.75      10.14       0.10      10.23        3.10   437.54   0.612
  sub64                     16.73       0.00       0.00       2.45      11.19       0.06      11.26        3.42   367.58   0.673
  sub65                     16.73       0.00       0.00       2.11      11.40       0.06      11.46        3.52   372.98   0.685
  sub66                     16.73       0.00       0.00       4.79       9.55       0.06       9.61        2.95   336.52   0.575
  sub67                     16.73       0.00       0.00       1.24      13.25       0.09      13.35        4.12   605.48   0.798
  sub68                     16.73       0.00       0.00       2.25      12.20       0.10      12.30        3.78   521.64   0.735
  sub69                     16.73       0.00       0.00       2.37      12.50       0.14      12.64        2.95   482.20   0.755
  sub70                     16.73      12.90       0.00       8.98      17.16       1.09      18.25        4.18   460.88   0.616
  sub71                     16.73       0.00       0.00       1.27      12.46       0.07      12.53        2.96   345.19   0.749
  sub72                     16.73       0.00       0.00       1.14      10.39       0.03      10.43        2.12   185.81   0.623
  sub73                     16.73      17.77       0.00       9.78      19.72       1.38      21.10        4.96   482.28   0.612
  sub74                     16.73       0.00       0.00      12.48       3.71       0.07       3.78        1.51   261.10   0.226
  
  
  ******************
  Node Depth Summary
  ******************
  
  ---------------------------------------------------------------------------------
                                 Average  Maximum  Maximum  Time of Max    Reported
                                   Depth    Depth      HGL   Occurrence   Max Depth
  Node                 Type       Meters   Meters   Meters  days hr:min      Meters
  ---------------------------------------------------------------------------------
  WS02001211           JUNCTION     0.67     0.76     5.60     0  02:03        0.76
  WS02001212           JUNCTION     0.40     0.50     5.56     0  02:02        0.50
  WS02001213           JUNCTION     0.64     0.77     5.54     0  02:02        0.77
  WS02003069           JUNCTION     0.47     0.64     5.23     0  02:01        0.64
  WS02003072           JUNCTION     0.53     0.70     5.07     0  02:02        0.70
  WS02003073           JUNCTION     0.32     0.43     4.50     0  02:02        0.43
  WS02003060           JUNCTION     0.42     0.57     5.50     0  02:01        0.57
  WS02003066           JUNCTION     0.25     0.36     5.91     0  01:58        0.36
  WS02003059           JUNCTION     0.70     0.84     5.52     0  02:01        0.84
  WS02003067           JUNCTION     0.61     0.79     6.11     0  01:57        0.79
  WS02004401           JUNCTION     0.74     1.11     7.11     0  01:55        1.11
  WS02004402           JUNCTION     0.77     1.12     7.08     0  01:54        1.11
  WS02004403           JUNCTION     0.78     1.10     7.03     0  01:55        1.10
  WS02004404           JUNCTION     0.86     1.16     7.01     0  01:55        1.16
  WS02004406           JUNCTION     0.85     1.11     6.94     0  01:55        1.11
  WS02004409           JUNCTION     0.55     0.86     6.63     0  01:57        0.86
  WS02004410           JUNCTION     0.57     0.86     6.58     0  01:57        0.86
  WS02004411           JUNCTION     0.58     0.85     6.53     0  01:57        0.85
  WS02004412           JUNCTION     0.59     0.84     6.48     0  01:57        0.84
  WS02004413           JUNCTION     0.74     0.98     6.45     0  01:57        0.98
  WS02004405           JUNCTION     0.85     1.14     6.99     0  01:55        1.14
  WS02006109           JUNCTION     0.83     1.27     7.88     0  01:54        1.26
  WS02006110           JUNCTION     0.80     1.11     7.70     0  01:55        1.11
  WS02006111           JUNCTION     0.26     0.61     7.32     0  01:55        0.61
  WS02006112           JUNCTION     0.92     1.39     7.28     0  01:56        1.38
  WS02006113           JUNCTION     0.38     0.62     7.51     0  01:55        0.62
  WS02006115           JUNCTION     0.64     1.07     7.21     0  01:55        1.07
  WS02006116           JUNCTION     0.72     1.12     7.16     0  01:55        1.12
  WS02006230           JUNCTION     0.82     1.39     8.13     0  01:54        1.38
  WS02006231           JUNCTION     0.56     1.02     8.14     0  01:54        1.01
  WS02006232           JUNCTION     0.69     1.11     8.15     0  01:55        1.11
  WS02006234           JUNCTION     0.61     1.07     8.23     0  01:45        0.98
  WS02006235           JUNCTION     0.63     1.04     8.20     0  01:45        0.99
  WS02006238           JUNCTION     0.66     1.05     8.20     0  01:45        1.01
  WS02006240           JUNCTION     0.55     1.06     8.35     0  01:45        0.88
  WS02006242           JUNCTION     0.60     1.41     8.68     0  01:45        0.92
  WS02006243           JUNCTION     0.47     0.82     8.24     0  01:46        0.78
  WS02006245           JUNCTION     0.45     0.75     8.24     0  01:51        0.73
  WS02006247           JUNCTION     0.46     0.74     8.24     0  01:49        0.72
  WS02006248           JUNCTION     0.40     0.64     8.23     0  01:55        0.64
  WS02006249           JUNCTION     0.43     0.64     8.24     0  01:55        0.64
  WS02006239           JUNCTION     0.61     1.12     8.33     0  01:45        0.96
  WS02006251           JUNCTION     0.41     0.63     8.30     0  01:55        0.63
  WS02006252           JUNCTION     0.33     0.35     8.59     0  01:40        0.35
  WS02006253           JUNCTION     0.44     0.66     8.30     0  01:55        0.66
  WS02006256           JUNCTION     1.10     2.35     9.28     0  00:00        1.23
  WS02004138           JUNCTION     0.15     0.17     7.42     0  00:00        0.17
  WS02004407           JUNCTION     0.25     0.37     6.68     0  01:56        0.37
  WS02006228           JUNCTION     0.84     1.39     8.04     0  01:55        1.37
  WS02006229           JUNCTION     0.83     1.42     8.11     0  01:55        1.42
  WS02006280           JUNCTION     0.09     0.25     8.52     0  01:55        0.25
  WS02006284           JUNCTION     0.39     0.64     9.04     0  01:55        0.64
  WS02006287           JUNCTION     0.12     0.38     9.33     0  01:54        0.38
  WSF200               JUNCTION     0.25     0.40     5.63     0  01:59        0.40
  HS02004901           JUNCTION     0.15     0.36    10.18     0  01:52        0.36
  HS02004881           JUNCTION     0.01     0.05     9.08     0  01:54        0.05
  HS02004876           JUNCTION     0.05     0.16     9.19     0  01:55        0.16
  HS02004870           JUNCTION     0.02     0.09     9.38     0  01:55        0.09
  HS02004862           JUNCTION     0.03     0.11     9.49     0  01:55        0.11
  HS02004856           JUNCTION     0.09     0.15     9.58     0  01:55        0.15
  HS02004852           JUNCTION     0.02     0.07     9.59     0  01:55        0.07
  HS02004848           JUNCTION     0.02     0.07     9.67     0  01:55        0.07
  HS02004842           JUNCTION     0.34     0.40     9.67     0  01:55        0.40
  HS02004837           JUNCTION     0.04     0.09     9.67     0  01:55        0.09
  HS02004830           JUNCTION     0.05     0.10     9.57     0  01:56        0.10
  HS02004824           JUNCTION     0.03     0.12     9.53     0  01:55        0.12
  HS02004817           JUNCTION     0.46     0.69     9.53     0  01:55        0.69
  HS02004807           JUNCTION     0.15     0.36     9.53     0  01:55        0.36
  HS02004802           JUNCTION     0.18     0.39     9.52     0  01:55        0.39
  HS02004799           JUNCTION     0.15     0.45     9.66     0  01:53        0.45
  HS02004792           JUNCTION     0.05     0.20     9.73     0  01:52        0.20
  HS02004788           JUNCTION     0.04     0.15    10.05     0  01:53        0.15
  HS02004785           JUNCTION     0.06     0.23    10.14     0  01:52        0.23
  HS02004777           JUNCTION     0.17     0.37    10.17     0  01:52        0.37
  HS02004770           JUNCTION     0.14     0.35    10.18     0  01:52        0.35
  HS02004480           JUNCTION     0.11     0.37     9.61     0  01:53        0.37
  HS02004479           JUNCTION     0.14     0.41     9.61     0  01:53        0.41
  HS02004478           JUNCTION     0.08     0.27     9.50     0  01:54        0.27
  YS02001745           JUNCTION     0.79     0.93     8.44     0  02:51        0.93
  YS02001748           JUNCTION     1.20     1.37     8.44     0  02:46        1.36
  YS02001751           JUNCTION     1.38     1.87     8.75     0  01:48        1.56
  YS02001754           JUNCTION     1.64     1.89     8.49     0  01:48        1.83
  YS02001762           JUNCTION     1.84     2.04     8.44     0  02:43        2.03
  YS02001765           JUNCTION     1.79     1.99     8.44     0  02:39        1.98
  YS02001767           JUNCTION     1.75     1.94     8.43     0  02:35        1.93
  YS02001770           JUNCTION     1.75     1.93     8.42     0  02:45        1.91
  YS02001774           JUNCTION     1.82     1.98     8.41     0  02:36        1.97
  YS02001779           JUNCTION     1.56     1.68     8.37     0  01:47        1.68
  YS02001882           JUNCTION     0.74     1.68     8.40     0  01:57        1.62
  YS02001884           JUNCTION     0.83     1.77     8.38     0  01:57        1.72
  YS02001759           JUNCTION     1.87     2.08     8.44     0  02:34        2.07
  YS02001887           JUNCTION     0.91     1.82     8.36     0  01:57        1.80
  YS02001890           JUNCTION     0.94     1.81     8.32     0  01:57        1.81
  YS02001898           JUNCTION     0.70     1.58     8.31     0  01:57        1.56
  YS02001901           JUNCTION     0.82     1.69     8.29     0  01:57        1.67
  YS02001904           JUNCTION     0.80     1.65     8.28     0  01:57        1.63
  YS02001907           JUNCTION     1.13     1.96     8.25     0  01:57        1.96
  YS02001910           JUNCTION     0.92     1.96     8.47     0  01:57        1.91
  YS02001915           JUNCTION     0.72     1.90     8.61     0  01:57        1.83
  YS02001918           JUNCTION     0.46     1.81     8.88     0  01:57        1.73
  YS02001619           JUNCTION     1.34     1.61     8.54     0  01:47        1.47
  YS02001629           JUNCTION     1.70     1.85     8.40     0  01:47        1.85
  YS02001641           JUNCTION     1.80     1.93     8.37     0  02:08        1.93
  YS02001644           JUNCTION     1.80     1.92     8.35     0  01:51        1.92
  YS02001652           JUNCTION     1.65     2.16     8.76     0  02:09        1.89
  YS02001655           JUNCTION     1.41     2.20     9.05     0  02:09        1.70
  YS02001920           JUNCTION     0.55     2.05     9.06     0  01:59        1.97
  YS02001923           JUNCTION     0.37     1.84     9.10     0  01:59        1.83
  YS02001926           JUNCTION     0.39     1.90     9.35     0  01:58        1.53
  YS02001929           JUNCTION     0.24     1.59     9.28     0  01:59        1.10
  YS02001658           JUNCTION     1.14     2.30     9.44     0  02:12        1.50
  YS02001661           JUNCTION     0.90     2.46     9.86     0  02:09        1.58
  YS02001664           JUNCTION     0.40     0.57     8.49     0  01:55        0.56
  YS02001622           JUNCTION     1.36     1.62     8.52     0  01:48        1.50
  YS02001633           JUNCTION     1.79     1.95     8.41     0  01:50        1.94
  YS02001649           JUNCTION     1.85     2.05     8.44     0  01:54        2.05
  YS02001757           JUNCTION     1.97     2.18     8.44     0  02:37        2.17
  YS02001895           JUNCTION     0.70     1.57     8.32     0  01:57        1.56
  YS02001625           JUNCTION     1.65     1.78     8.38     0  01:46        1.78
  YS02163301           JUNCTION     1.73     1.89     8.41     0  01:50        1.87
  YS02163601           JUNCTION     1.84     1.99     8.39     0  02:14        1.98
  YS02164001           JUNCTION     1.78     1.92     8.37     0  02:24        1.91
  YS02001647           JUNCTION     1.63     1.80     8.41     0  02:07        1.79
  YSB1154              JUNCTION     0.28     0.56     9.62     0  01:53        0.56
  YSB6556              JUNCTION     0.18     0.44     9.61     0  01:53        0.44
  YSB1174              JUNCTION     0.24     0.50     9.61     0  01:53        0.50
  YSB1171              JUNCTION     0.44     0.71     9.61     0  01:53        0.71
  YS02006553           JUNCTION     1.13     2.17     8.45     0  01:57        1.96
  YS02006561           JUNCTION     0.45     1.95     8.61     0  01:57        1.08
  YS02006556           JUNCTION     1.09     2.37     8.68     0  01:57        1.92
  YS02006558           JUNCTION     1.13     2.48     8.74     0  01:57        1.96
  YS02001783           JUNCTION     0.72     2.23     8.37     0  01:57        1.47
  YS02001784           JUNCTION     0.73     2.22     8.28     0  01:57        1.42
  YS02001786           JUNCTION     0.65     2.23     8.26     0  01:57        1.26
  YS02001788           JUNCTION     0.58     2.28     8.26     0  01:57        1.12
  YS02001790           JUNCTION     0.72     1.96     7.60     0  01:57        1.29
  YS02001791           JUNCTION     0.70     2.47     7.94     0  01:56        1.28
  YS02001793           JUNCTION     0.97     2.07     6.91     0  01:56        1.80
  WS02004139           JUNCTION     0.61     0.70     5.61     0  02:03        0.70
  WSC                  OUTFALL      0.32     0.43     1.10     0  02:03        0.43
  3                    OUTFALL      0.13     0.23     6.23     0  00:00        0.22
  4                    OUTFALL      0.02     0.14     7.14     0  01:55        0.14
  5                    OUTFALL      0.00     0.00     5.00     0  00:00        0.00
  JK-storage           STORAGE      3.46     5.80     6.60     0  01:57        5.80
  CC-storage           STORAGE      1.18     1.41     8.41     0  02:55        1.41
  XR-storage           STORAGE      7.38     7.72     5.72     0  02:02        7.72
  
  
  *******************
  Node Inflow Summary
  *******************
  
  -------------------------------------------------------------------------------------------------
                                  Maximum  Maximum                  Lateral       Total        Flow
                                  Lateral    Total  Time of Max      Inflow      Inflow     Balance
                                   Inflow   Inflow   Occurrence      Volume      Volume       Error
  Node                 Type           LPS      LPS  days hr:min    10^6 ltr    10^6 ltr     Percent
  -------------------------------------------------------------------------------------------------
  WS02001211           JUNCTION      7.35   293.36     0  02:19       0.207        7.01       0.514
  WS02001212           JUNCTION      0.00   294.12     0  02:19           0        6.98       0.286
  WS02001213           JUNCTION      0.00   294.80     0  02:20           0        6.96       0.357
  WS02003069           JUNCTION      0.32  1113.03     0  02:01     0.00902        16.5       0.191
  WS02003072           JUNCTION      0.00  1112.99     0  02:02           0        16.5       0.232
  WS02003073           JUNCTION      1.82  1114.84     0  02:02      0.0514        16.5       0.262
  WS02003060           JUNCTION     16.53  1112.69     0  02:00       0.466        16.5       0.181
  WS02003066           JUNCTION      0.00   811.35     0  01:58           0        9.19       0.050
  WS02003059           JUNCTION      0.00   295.79     0  02:20           0        6.93       0.548
  WS02003067           JUNCTION      0.00   811.31     0  01:57           0         9.2       0.104
  WS02004401           JUNCTION      0.00   812.03     0  01:56           0        9.44       0.234
  WS02004402           JUNCTION      0.00   812.01     0  01:56           0        9.42       0.220
  WS02004403           JUNCTION      0.00   812.00     0  01:56           0         9.4       0.199
  WS02004404           JUNCTION      0.16   812.15     0  01:56     0.00457        9.39       0.149
  WS02004406           JUNCTION      0.00   812.19     0  01:56           0        9.35       0.363
  WS02004409           JUNCTION      0.00   812.17     0  01:56           0        9.31       0.183
  WS02004410           JUNCTION      0.00   811.64     0  01:56           0        9.29       0.206
  WS02004411           JUNCTION      0.00   811.39     0  01:57           0        9.27       0.211
  WS02004412           JUNCTION      0.00   811.30     0  01:57           0        9.26       0.227
  WS02004413           JUNCTION      0.00   811.28     0  01:57           0        9.23       0.336
  WS02004405           JUNCTION      0.04   812.18     0  01:56     0.00107        9.37       0.225
  WS02006109           JUNCTION      1.23   787.10     0  01:55      0.0347        9.48       0.242
  WS02006110           JUNCTION      0.00   787.13     0  01:55           0        9.45       0.214
  WS02006111           JUNCTION      0.00   786.78     0  01:55           0        9.42       0.048
  WS02006112           JUNCTION     26.81   812.03     0  01:55      0.0948        9.51       0.294
  WS02006113           JUNCTION      0.00   787.02     0  01:55           0        9.43       0.108
  WS02006115           JUNCTION      0.00   812.06     0  01:55           0        9.48       0.225
  WS02006116           JUNCTION      0.00   812.00     0  01:56           0        9.46       0.215
  WS02006230           JUNCTION     10.28   356.17     0  03:19        0.29        6.79       0.220
  WS02006231           JUNCTION      0.00   344.34     0  03:19           0        6.51       0.148
  WS02006232           JUNCTION      0.00   344.14     0  03:19           0        6.52       0.252
  WS02006234           JUNCTION      0.00   343.15     0  03:19           0        6.53       0.124
  WS02006235           JUNCTION      0.00   342.47     0  03:19           0         6.6       0.167
  WS02006238           JUNCTION      0.00   242.60     0  03:14           0        4.44       0.180
  WS02006240           JUNCTION      0.00   240.04     0  03:14           0        4.44       0.277
  WS02006242           JUNCTION      0.00   238.85     0  03:00           0        4.44       0.332
  WS02006243           JUNCTION      0.00   262.44     0  01:44           0        4.44       0.145
  WS02006245           JUNCTION      0.00   273.17     0  01:44           0        4.45       0.196
  WS02006247           JUNCTION      0.00   285.34     0  01:45           0        4.46       0.156
  WS02006248           JUNCTION      0.00   291.05     0  01:45           0        4.46       0.098
  WS02006249           JUNCTION      0.00   342.68     0  01:56           0        4.86       0.209
  WS02006239           JUNCTION      0.00   241.46     0  03:14           0        4.43       0.267
  WS02006251           JUNCTION      0.08   342.98     0  01:54     0.00217        4.87       0.180
  WS02006252           JUNCTION      0.00   200.00     0  01:40           0        4.33       0.010
  WS02006253           JUNCTION      3.66   142.87     0  01:54      0.0117       0.543       0.654
  WS02006256           JUNCTION      0.00   600.00     0  00:00           0        7.83       0.032
  WS02004138           JUNCTION      0.00   285.00     0  00:00           0        6.84       0.075
  WS02004407           JUNCTION      0.00   812.24     0  01:56           0        9.32       0.082
  WS02006228           JUNCTION      0.00   785.92     0  01:55           0        9.46       0.170
  WS02006229           JUNCTION      0.00   785.99     0  01:54           0        9.47       0.136
  WS02006280           JUNCTION      0.00   656.04     0  01:55           0         2.7       0.002
  WS02006284           JUNCTION      0.10   655.96     0  01:55      0.0027         2.7       0.039
  WS02006287           JUNCTION      0.00   655.81     0  01:54           0         2.7       0.027
  WSF200               JUNCTION      0.00   811.33     0  01:58           0        9.19       0.046
  HS02004901           JUNCTION     32.57    32.57     0  01:50       0.114       0.115       1.560
  HS02004881           JUNCTION     13.82   139.59     0  01:54      0.0479       0.529       0.085
  HS02004876           JUNCTION     24.51   126.37     0  01:54      0.0923       0.482       0.114
  HS02004870           JUNCTION     25.44   102.13     0  01:54      0.0907        0.39       0.028
  HS02004862           JUNCTION     23.11    77.53     0  01:55       0.099       0.299       0.058
  HS02004856           JUNCTION     19.02    54.51     0  01:55      0.0682       0.202       0.720
  HS02004852           JUNCTION      0.00    36.10     0  01:55           0       0.134       0.042
  HS02004848           JUNCTION     50.49    50.49     0  01:57       0.223       0.223       0.021
  HS02004842           JUNCTION      0.00    15.55     0  02:06           0       0.102      14.562
  HS02004837           JUNCTION     49.08    62.50     0  01:55       0.337       0.426       0.191
  HS02004830           JUNCTION      0.15    62.61     0  01:55     0.00423       0.416       0.297
  HS02004824           JUNCTION     60.06   122.20     0  01:58       0.286       0.702       0.077
  HS02004817           JUNCTION      0.60   124.03     0  01:59      0.0169       0.718       2.378
  HS02004807           JUNCTION     47.25   168.28     0  01:57       0.166       0.868       0.499
  HS02004802           JUNCTION      0.00   169.25     0  01:58           0       0.865       0.461
  HS02004799           JUNCTION     37.43   414.53     0  01:52       0.135        1.57       0.166
  HS02004792           JUNCTION    160.44   377.30     0  01:52       0.598        1.44       0.028
  HS02004788           JUNCTION     53.14   218.54     0  01:52        0.24       0.839       0.046
  HS02004785           JUNCTION      0.15   165.59     0  01:52     0.00423       0.601       0.082
  HS02004777           JUNCTION      0.03   165.80     0  01:51    0.000846       0.601       0.872
  HS02004770           JUNCTION    134.74   166.64     0  01:51        0.49       0.602       0.516
  HS02004480           JUNCTION      0.00   492.23     0  01:53           0        1.85       0.064
  HS02004479           JUNCTION      0.00    78.01     0  01:53           0       0.292       0.252
  HS02004478           JUNCTION      0.00   655.76     0  01:54           0         2.7       0.013
  YS02001745           JUNCTION    386.89   386.89     0  02:16        3.55        3.55       0.323
  YS02001748           JUNCTION      0.04   396.91     0  02:16     0.00127        3.54       0.653
  YS02001751           JUNCTION      0.01   397.36     0  02:16     0.00031        3.52       0.680
  YS02001754           JUNCTION      0.26   397.43     0  02:16     0.00733         3.5       0.702
  YS02001762           JUNCTION      0.00   437.97     0  02:04           0        2.18       0.968
  YS02001765           JUNCTION      0.00   437.99     0  02:04           0        2.18       1.120
  YS02001767           JUNCTION      0.54   438.06     0  02:04      0.0151         2.2       1.638
  YS02001770           JUNCTION    491.42   619.95     0  03:00        3.94        4.51       0.698
  YS02001774           JUNCTION      0.00   619.96     0  03:00           0        2.86       0.876
  YS02001779           JUNCTION      0.01   619.98     0  03:00    0.000141        2.83       0.541
  YS02001882           JUNCTION      0.00    19.93     0  01:50           0        0.02      12.921
  YS02001884           JUNCTION      0.00    43.79     0  01:53           0       0.055      13.105
  YS02001759           JUNCTION    476.91   872.71     0  02:05        3.62         5.2       0.438
  YS02001887           JUNCTION    605.93   606.15     0  02:15        4.13        4.16       0.213
  YS02001890           JUNCTION      0.00   606.26     0  02:16           0        4.11       0.230
  YS02001898           JUNCTION      0.00   521.17     0  01:58           0           4       0.085
  YS02001901           JUNCTION      0.00   521.13     0  01:58           0           4       0.176
  YS02001904           JUNCTION      0.00   521.38     0  01:58           0        3.99       0.161
  YS02001907           JUNCTION      0.00  1186.55     0  01:59           0        9.13       0.267
  YS02001910           JUNCTION      0.00   669.31     0  01:59           0        5.15       0.241
  YS02001915           JUNCTION    345.21   669.27     0  01:59        2.96         5.2       0.118
  YS02001918           JUNCTION      0.00   391.37     0  01:59           0        2.27       0.082
  YS02001619           JUNCTION    336.52   336.52     0  02:16        2.95        2.95       0.415
  YS02001629           JUNCTION      0.00   234.94     0  01:47           0        1.44       2.020
  YS02001641           JUNCTION      0.00   417.55     0  01:51           0        4.85       0.432
  YS02001644           JUNCTION    367.62  1418.82     0  03:00        3.42        12.3       0.209
  YS02001652           JUNCTION      0.00   477.03     0  02:12           0        3.05       0.752
  YS02001655           JUNCTION      0.15   477.10     0  02:12     0.00434        3.07       0.822
  YS02001920           JUNCTION      2.87   391.33     0  01:59      0.0809        2.25       0.142
  YS02001923           JUNCTION      0.04   316.55     0  02:00     0.00106        2.15       0.045
  YS02001926           JUNCTION      0.05   269.55     0  01:58     0.00147        2.14       0.148
  YS02001929           JUNCTION    185.81   202.12     0  01:58        2.12        2.13       0.029
  YS02001658           JUNCTION      0.00   506.68     0  02:13           0        3.09       0.764
  YS02001661           JUNCTION      0.00   771.07     0  02:05           0        3.82      -0.049
  YS02001664           JUNCTION    437.54   437.54     0  02:16         3.1        3.82       0.174
  YS02001622           JUNCTION      0.00   336.68     0  02:16           0        2.94       1.092
  YS02001633           JUNCTION    373.18   417.28     0  01:51        3.53        4.92       0.651
  YS02001649           JUNCTION      0.00   978.93     0  02:00           0         6.4       0.576
  YS02001757           JUNCTION      0.00  2139.19     0  02:03           0        10.3       0.896
  YS02001895           JUNCTION      0.00   520.79     0  01:58           0           4       0.131
  YS02001625           JUNCTION      0.00   336.59     0  02:16           0        2.91       1.366
  YS02163301           JUNCTION      0.00   224.64     0  01:48           0        1.44       1.681
  YS02163601           JUNCTION      0.11   417.35     0  01:51      0.0031        4.87       0.616
  YS02164001           JUNCTION      0.00   417.22     0  01:51           0        4.85       0.409
  YS02001647           JUNCTION      0.00   691.64     0  02:57           0        5.42       0.523
  YSB1154              JUNCTION     43.61    43.61     0  01:53       0.163       0.164       0.888
  YSB6556              JUNCTION      0.00    43.64     0  01:53           0       0.165       0.765
  YSB1174              JUNCTION     35.87    35.87     0  01:50        0.12        0.12       1.078
  YSB1171              JUNCTION      0.00    78.04     0  01:52           0       0.291       2.227
  YS02006553           JUNCTION      0.00   682.66     0  03:22           0        7.14       0.218
  YS02006561           JUNCTION      0.00  1095.92     0  01:57           0        10.9       0.006
  YS02006556           JUNCTION      0.00   682.71     0  03:22           0        7.15       0.160
  YS02006558           JUNCTION    522.52  1095.87     0  01:57        3.81        10.9       0.050
  YS02001783           JUNCTION      0.00  1079.70     0  01:57           0        10.9       0.025
  YS02001784           JUNCTION      1.06  1080.73     0  01:57      0.0299        10.9       0.036
  YS02001786           JUNCTION      0.06  1080.55     0  01:57     0.00159        10.9       0.033
  YS02001788           JUNCTION      0.07  1074.71     0  01:57       0.002        10.9       0.018
  YS02001790           JUNCTION      0.15  1055.04     0  01:56     0.00437        10.9       0.027
  YS02001791           JUNCTION      0.00  1087.33     0  01:56           0        10.9       0.008
  YS02001793           JUNCTION      0.00   995.18     0  01:57           0        10.9       0.003
  WS02004139           JUNCTION      0.32   290.33     0  00:00     0.00905        6.84       0.571
  WSC                  OUTFALL       0.00  1114.93     0  02:03           0        16.5       0.000
  3                    OUTFALL       0.00   597.65     0  00:00           0        5.64       0.000
  4                    OUTFALL       0.00   179.65     0  01:55           0       0.386       0.000
  5                    OUTFALL       0.00     0.00     0  00:00           0           0       0.000 ltr
  JK-storage           STORAGE       0.00   997.05     0  01:57           0        11.1      -4.006
  CC-storage           STORAGE       0.00  2139.06     0  02:03           0        8.12       0.800
  XR-storage           STORAGE     844.69   844.69     0  03:01        12.1        12.7      -0.002
  
  
  **********************
  Node Surcharge Summary
  **********************
  
  Surcharging occurs when water rises above the top of the highest conduit.
  ---------------------------------------------------------------------
                                               Max. Height   Min. Depth
                                   Hours       Above Crown    Below Rim
  Node                 Type      Surcharged         Meters       Meters
  ---------------------------------------------------------------------
  WS02004401           JUNCTION        0.58          0.113        1.547
  WS02004402           JUNCTION        0.62          0.115        1.625
  WS02004403           JUNCTION        0.62          0.104        1.926
  WS02004404           JUNCTION        0.86          0.157        2.623
  WS02004406           JUNCTION        0.74          0.106        2.344
  WS02004405           JUNCTION        0.79          0.137        2.663
  WS02006109           JUNCTION        1.93          0.446        1.374
  WS02006110           JUNCTION        1.45          0.203        1.647
  WS02006112           JUNCTION        1.56          0.392        1.288
  WS02006115           JUNCTION        0.38          0.057        2.193
  WS02006116           JUNCTION        0.43          0.063        2.227
  WS02006230           JUNCTION        0.82          0.306        1.264
  WS02006231           JUNCTION        0.99          0.309        1.221
  WS02006232           JUNCTION        1.73          0.410        1.070
  WS02006234           JUNCTION        1.46          0.354        0.886
  WS02006235           JUNCTION        1.57          0.330        0.960
  WS02006238           JUNCTION        1.61          0.334        1.096
  WS02006240           JUNCTION        1.18          0.347        1.043
  WS02006242           JUNCTION        1.45          0.684        0.136
  WS02006243           JUNCTION        0.61          0.111        0.659
  WS02006245           JUNCTION        0.34          0.040        0.810
  WS02006247           JUNCTION        0.23          0.030        0.730
  WS02006239           JUNCTION        1.45          0.384        0.906
  WS02006256           JUNCTION        0.01          1.050        0.000
  WS02006228           JUNCTION        1.91          0.556        1.644
  YS02001748           JUNCTION        5.99          0.285        0.905
  YS02001751           JUNCTION        6.02          0.871        0.329
  YS02001754           JUNCTION        6.05          0.835        0.315
  YS02001762           JUNCTION        6.09          1.041        0.109
  YS02001765           JUNCTION        6.08          0.990        0.110
  YS02001767           JUNCTION        6.07          0.944        0.086
  YS02001770           JUNCTION        6.07          0.898        0.022
  YS02001774           JUNCTION        6.08          0.985        0.065
  YS02001779           JUNCTION        6.04          0.680        0.000
  YS02001882           JUNCTION        1.76          0.680        0.150
  YS02001884           JUNCTION        1.79          0.708        0.162
  YS02001759           JUNCTION        6.09          1.079        0.131
  YS02001887           JUNCTION        1.87          0.773        0.177
  YS02001890           JUNCTION        1.90          0.760        0.000
  YS02001898           JUNCTION        1.71          0.546        0.194
  YS02001901           JUNCTION        1.83          0.685        0.185
  YS02001904           JUNCTION        1.81          0.646        0.204
  YS02001907           JUNCTION        2.25          0.950        0.000
  YS02001910           JUNCTION        1.94          0.964        0.136
  YS02001915           JUNCTION        1.75          0.897        0.103
  YS02001918           JUNCTION        1.51          0.810        0.000
  YS02001619           JUNCTION        6.02          0.610        0.000
  YS02001629           JUNCTION        6.02          0.470        0.000
  YS02001641           JUNCTION        6.08          0.935        0.165
  YS02001644           JUNCTION        6.08          0.920        0.000
  YS02001652           JUNCTION        6.05          1.130        0.000
  YS02001655           JUNCTION        6.02          1.200        0.000
  YS02001920           JUNCTION        1.54          1.051        0.089
  YS02001923           JUNCTION        0.01          0.629        0.191
  YS02001926           JUNCTION        0.01          0.900        0.000
  YS02001929           JUNCTION        0.01          0.589        0.191
  YS02001658           JUNCTION        5.99          1.300        0.000
  YS02001661           JUNCTION        0.27          1.390        0.000
  YS02001622           JUNCTION        6.02          0.620        0.000
  YS02001633           JUNCTION        6.08          0.934        0.126
  YS02001649           JUNCTION        6.08          1.050        0.000
  YS02001757           JUNCTION        6.12          1.180        0.030
  YS02001895           JUNCTION        1.73          0.572        0.178
  YS02001625           JUNCTION        6.05          0.780        0.000
  YS02163301           JUNCTION        6.07          0.894        0.136
  YS02163601           JUNCTION        6.09          0.988        0.092
  YS02164001           JUNCTION        6.08          0.916        0.184
  YS02001647           JUNCTION        6.05          0.804        0.096
  YS02006553           JUNCTION        2.29          1.165        0.025
  YS02006561           JUNCTION        1.61          1.150        0.000
  YS02006556           JUNCTION        2.11          1.329        0.021
  YS02006558           JUNCTION        2.09          1.377        0.023
  YS02001783           JUNCTION        2.14          1.433        0.167
  YS02001784           JUNCTION        2.18          1.416        0.074
  YS02001786           JUNCTION        2.07          1.430        0.000
  YS02001788           JUNCTION        2.05          1.480        0.000
  YS02001790           JUNCTION        3.14          1.157        0.000
  YS02001791           JUNCTION        3.17          1.672        0.248
  YS02001793           JUNCTION        3.23          1.074        1.526
  
  
  *********************
  Node Flooding Summary
  *********************
  
  Flooding refers to all water that overflows a node, whether it ponds or not.
  --------------------------------------------------------------------------
                                                             Total   Maximum
                                 Maximum   Time of Max       Flood    Ponded
                        Hours       Rate    Occurrence      Volume     Depth
  Node                 Flooded       LPS   days hr:min    10^6 ltr    Meters
  --------------------------------------------------------------------------
  WS02006256              0.01    406.11      0  00:00       0.001     0.000
  YS02001779              3.43    619.98      0  03:00       2.816     0.000
  YS02001890              0.55     89.70      0  02:16       0.100     0.000
  YS02001907              1.38    667.92      0  01:59       1.976     0.000
  YS02001918              0.01     93.11      0  01:57       0.000     0.000
  YS02001619              0.01     69.82      0  01:48       0.000     0.000
  YS02001629              0.01    181.65      0  01:47       0.001     0.000
  YS02001644              5.85   1418.82      0  03:00      10.984     0.000
  YS02001652              0.01     16.80      0  02:13       0.000     0.000
  YS02001655              0.01     20.78      0  02:21       0.000     0.000
  YS02001926              0.01    103.25      0  01:58       0.000     0.000
  YS02001658              0.01     12.29      0  02:12       0.000     0.000
  YS02001661              0.01    154.45      0  02:13       0.000     0.000
  YS02001622              0.01     66.58      0  01:48       0.000     0.000
  YS02001649              0.09     43.89      0  02:13       0.004     0.000
  YS02001625              2.01    326.43      0  02:16       1.447     0.000
  YS02006561              0.01     58.49      0  01:57       0.000     0.000
  YS02001786              0.01     19.73      0  01:57       0.000     0.000
  YS02001788              0.01    130.72      0  01:57       0.000     0.000
  YS02001790              0.01    143.39      0  01:57       0.000     0.000
  JK-storage              3.04    693.53      0  01:57       3.733     0.000
  XR-storage              5.30    654.68      0  03:01       4.980     0.000
  
  
  **********************
  Storage Volume Summary
  **********************
  
  --------------------------------------------------------------------------------------------------
                         Average     Avg  Evap Exfil       Maximum     Max    Time of Max    Maximum
                          Volume    Pcnt  Pcnt  Pcnt        Volume    Pcnt     Occurrence    Outflow
  Storage Unit           1000 m3    Full  Loss  Loss       1000 m3    Full    days hr:min        LPS
  --------------------------------------------------------------------------------------------------
  JK-storage               0.174      60     0     0         0.291     100       0  01:57     600.00
  CC-storage               3.296      21     0     0         3.932      25       0  02:55     200.00
  XR-storage               0.885      96     0     0         0.926     100       0  02:02     285.00
  
  
  ***********************
  Outfall Loading Summary
  ***********************
  
  -----------------------------------------------------------
                         Flow       Avg       Max       Total
                         Freq      Flow      Flow      Volume
  Outfall Node           Pcnt       LPS       LPS    10^6 ltr
  -----------------------------------------------------------
  WSC                   99.99    661.24   1114.93      16.463
  3                     95.23    265.90    597.65       5.637
  4                     25.27     73.22    179.65       0.386
  5                      0.00      0.00      0.00       0.000
  -----------------------------------------------------------
  System                55.12   1000.36   1816.82      22.486
  
  
  ********************
  Link Flow Summary
  ********************
  
  -----------------------------------------------------------------------------
                                 Maximum  Time of Max   Maximum    Max/    Max/
                                  |Flow|   Occurrence   |Veloc|    Full    Full
  Link                 Type          LPS  days hr:min     m/sec    Flow   Depth
  -----------------------------------------------------------------------------
  WS02003066WSF200     CONDUIT    811.33     0  01:58      2.95    0.14    0.29
  WS02006287WS02006284 CONDUIT    655.86     0  01:55      2.36    0.30    0.38
  WS02006284WS02006280 CONDUIT    656.04     0  01:55      2.59    0.27    0.36
  WS02006280WS02006229 CONDUIT    656.05     0  01:55      4.21    0.14    0.25
  WS02006229WS02006228 CONDUIT    785.92     0  01:55      1.56    2.60    1.00
  WS02006256WS02006235 CONDUIT    177.52     0  00:01      2.73    1.88    1.00
  WS02006253WS02006251 CONDUIT    142.90     0  01:54      0.59    0.43    0.91
  WS02006252WS02006251 CONDUIT    201.25     0  01:40      1.97    0.74    0.76
  WS02006251WS02006249 CONDUIT    342.68     0  01:56      1.04    0.99    0.90
  WS02006249WS02006248 CONDUIT    291.05     0  01:45      1.12    1.59    0.90
  WS02006248WS02006247 CONDUIT    285.34     0  01:45      1.09    0.62    0.96
  WS02006247WS02006245 CONDUIT    273.17     0  01:44      1.05    2.17    1.00
  WS02006245WS02006243 CONDUIT    262.44     0  01:44      1.10    0.78    1.00
  WS02006243WS02006242 CONDUIT    238.85     0  03:00      0.85    0.51    1.00
  WS02006242WS02006240 CONDUIT    240.04     0  03:14      0.77    0.95    1.00
  WS02006240WS02006239 CONDUIT    241.46     0  03:14      0.84    0.76    1.00
  WS02006239WS02006238 CONDUIT    242.60     0  03:14      0.76    0.78    1.00
  WS02006238WS02006235 CONDUIT    242.76     0  03:14      1.32    0.54    1.00
  WS02006235WS02006234 CONDUIT    343.15     0  03:19      0.95    3.62    1.00
  WS02006234WS02006232 CONDUIT    344.14     0  03:19      1.17    0.70    1.00
  WS02006232WS02006231 CONDUIT    344.34     0  03:19      0.95    0.72    1.00
  WS02006231WS02006230 CONDUIT    345.89     0  03:19      1.30    5.25    1.00
  WS02006230WS02006229 CONDUIT    358.26     0  03:18      0.93    7.97    1.00
  WS02006228WS02006109 CONDUIT    785.87     0  01:55      1.56    3.43    1.00
  WS02006116WS02004401 CONDUIT    812.03     0  01:56      1.03    1.12    1.00
  WS02006115WS02006116 CONDUIT    812.00     0  01:56      1.03    1.04    1.00
  WS02006113WS02006111 CONDUIT    786.78     0  01:55      2.65    0.94    0.77
  WS02006112WS02006115 CONDUIT    812.06     0  01:55      1.03    0.48    1.00
  WS02006111WS02006112 CONDUIT    787.25     0  01:56      1.79    0.37    0.88
  WS02006110WS02006113 CONDUIT    787.02     0  01:55      1.69    0.72    0.88
  WS02006109WS02006110 CONDUIT    787.13     0  01:55      1.57    1.51    1.00
  WS02004411WS02004412 CONDUIT    811.30     0  01:57      1.15    1.15    0.84
  WS02004401WS02004402 CONDUIT    812.01     0  01:56      1.03    0.97    1.00
  WS02004413WS02003067 CONDUIT    811.31     0  01:57      1.40    0.35    0.69
  WS02004412WS02004413 CONDUIT    811.28     0  01:57      1.08    0.54    0.91
  WS02004410WS02004411 CONDUIT    811.39     0  01:57      1.14    1.11    0.85
  WS02004409WS02004410 CONDUIT    811.64     0  01:56      1.13    1.05    0.86
  WS02004407WS02004409 CONDUIT    812.17     0  01:56      1.67    0.29    0.61
  WS02004406WS02004407 CONDUIT    812.24     0  01:56      1.42    0.36    0.68
  WS02004405WS02004406 CONDUIT    812.19     0  01:56      1.03    1.60    1.00
  WS02004404WS02004405 CONDUIT    812.14     0  01:56      1.03    7.96    1.00
  WS02004403WS02004404 CONDUIT    811.99     0  01:56      1.03    0.59    1.00
  WS02004402WS02004403 CONDUIT    812.00     0  01:56      1.03    1.17    1.00
  WS02004139WS02001211 CONDUIT    286.01     0  02:19      0.80    0.36    0.57
  WS02004138WS02004139 CONDUIT    290.01     0  00:00      3.34    0.06    0.41
  WS02003067WS02003066 CONDUIT    811.35     0  01:58      1.52    0.26    0.48
  WS02001213WS02003059 CONDUIT    295.79     0  02:20      0.80    0.49    0.80
  WS02001212WS02001213 CONDUIT    294.80     0  02:20      1.19    0.45    0.48
  WS02001211WS02001212 CONDUIT    294.12     0  02:19      0.67    0.22    0.63
  WS02003072WS02003073 CONDUIT   1113.01     0  02:02      1.83    2.40    0.53
  WS02003069WS02003072 CONDUIT   1112.99     0  02:02      1.71    0.54    0.56
  WS02003060WS02003069 CONDUIT   1112.71     0  02:01      1.94    0.44    0.51
  WS02003059WS02003060 CONDUIT    297.44     0  02:21      0.82    0.19    0.70
  HS02004901HS02004770 CONDUIT     31.96     0  01:52      0.09    0.12    0.51
  HS02004876HS02004881 CONDUIT    126.38     0  01:55      1.20    1.34    0.15
  HS02004870HS02004876 CONDUIT    102.10     0  01:55      0.82    0.07    0.18
  HS02004842HS02004848 CONDUIT     15.55     0  02:06      0.07    0.01    0.33
  HS02004837HS02004842 CONDUIT     15.96     0  02:07      0.41    0.01    0.35
  HS02004830HS02004837 CONDUIT     62.46     0  01:55      0.66    0.06    0.14
  HS02004824HS02004830 CONDUIT     62.57     0  01:56      0.62    0.08    0.16
  HS02004817HS02004824 CONDUIT    123.43     0  01:59      0.31    0.06    0.58
  HS02004770HS02004777 CONDUIT    165.77     0  01:51      0.46    0.30    0.52
  HS02004799HS02004480 CONDUIT    414.30     0  01:53      1.02    0.52    0.58
  HS02004792HS02004799 CONDUIT    377.20     0  01:52      1.15    0.23    0.47
  HS02004788HS02004792 CONDUIT    218.44     0  01:53      1.24    0.14    0.25
  HS02004785HS02004788 CONDUIT    165.54     0  01:53      0.86    1.25    0.27
  HS02004777HS02004785 CONDUIT    165.44     0  01:52      0.54    0.20    0.44
  HS02004480HS02004478 CONDUIT    492.14     0  01:53      1.52    2.07    0.46
  HS02004479HS02004480 CONDUIT     78.31     0  01:54      0.27    0.08    0.55
  HS02004862HS02004870 CONDUIT     77.52     0  01:55      0.79    0.08    0.14
  HS02004848HS02004852 CONDUIT     36.10     0  01:55      0.52    0.04    0.10
  HS02004856HS02004862 CONDUIT     54.46     0  01:55      0.59    0.05    0.13
  HS02004852HS02004856 CONDUIT     36.15     0  01:56      0.33    0.04    0.16
  HS02004802HS02004478 CONDUIT    170.22     0  01:58      0.53    0.15    0.47
  HS02004478WS02006287 CONDUIT    655.81     0  01:54      2.08    0.18    0.35
  HS02004817HS02004807 CONDUIT    125.36     0  01:59      0.24    0.07    0.75
  HS02004807HS02004802 CONDUIT    169.25     0  01:58      0.47    0.32    0.53
  YS02001759YS02001757 CONDUIT    872.85     0  02:05      1.11    0.62    1.00
  YS02001762YS02001759 CONDUIT    437.86     0  02:04      0.56    0.50    1.00
  YS02001765YS02001762 CONDUIT    437.97     0  02:04      0.56    0.41    1.00
  YS02001770YS02001767 CONDUIT    437.53     0  02:04      0.56    1.73    1.00
  YS02001774YS02001770 CONDUIT    619.96     0  03:00      0.79    0.40    1.00
  YS02001779YS02001774 CONDUIT    619.97     0  03:00      0.79    0.31    1.00
  YS02001649YS02001757 CONDUIT    978.96     0  02:00      1.25    0.59    1.00
  YS02001767YS02001765 CONDUIT    437.99     0  02:04      0.56    0.55    1.00
  YS02006561YS02001783 CONDUIT   1079.70     0  01:57      2.26    0.56    1.00
  YS02001783YS02001784 CONDUIT   1079.67     0  01:57      2.15    1.49    1.00
  YS02001784YS02001785 CONDUIT   1080.50     0  01:57      2.15    2.51    1.00
  YS02001788YS02001790 CONDUIT   1054.89     0  01:56      2.59    0.78    1.00
  YS02001790YS02001791 CONDUIT   1087.33     0  01:56      3.23    1.18    1.00
  YS02001791YS02001793 CONDUIT    995.18     0  01:57      6.14    0.43    1.00
  YS02001910YS02001907 CONDUIT    669.35     0  01:59      0.85    0.38    1.00
  YS02001786YS02001788 CONDUIT   1074.64     0  01:57      2.34    2.07    1.00
  YS02001915YS02001910 CONDUIT    669.31     0  01:59      0.85    0.33    1.00
  YS02001918YS02001915 CONDUIT    391.55     0  01:59      0.50    0.22    1.00
  YS02001923YS02001920 CONDUIT    388.46     0  01:59      0.79    0.17    1.00
  YS02001926YS02001923 CONDUIT    316.52     0  02:00      0.87    0.45    1.00
  YS02001929YS02001926 CONDUIT    268.81     0  01:59      0.93    0.13    1.00
  YS02001920YS02001918 CONDUIT    391.37     0  01:59      0.76    0.38    1.00
  YS02001629YS02163301 CONDUIT    224.64     0  01:48      0.29    0.28    1.00
  YS02001619YS02001622 CONDUIT    336.68     0  02:16      0.76    0.50    1.00
  YS02001622YS02001625 CONDUIT    336.59     0  02:16      0.43    0.18    1.00
  YS02001625YS02001629 CONDUIT    212.38     0  01:47      0.31    0.10    1.00
  YS02163301YS02001633 CONDUIT    224.73     0  01:48      0.29    0.21    1.00
  YS02163601YS02164001 CONDUIT    417.22     0  01:51      0.53    0.37    1.00
  YS02164001YS02001641 CONDUIT    417.55     0  01:51      0.53    0.57    1.00
  YS02001641YS02001644 CONDUIT    417.68     0  01:51      0.53    1.35    1.00
  YS02001647YS02001649 CONDUIT    691.64     0  02:57      0.88    0.37    1.00
  YS02006553YS02006556 CONDUIT    682.71     0  03:22      0.87    0.58    1.00
  YS02006556YS02006558 CONDUIT    682.81     0  03:22      0.87    0.54    1.00
  YSB6556YSB1171       CONDUIT     43.98     0  01:54      0.13    0.05    0.82
  YS02001907YS02006553 CONDUIT    682.66     0  03:22      0.76    0.80    1.00
  YS02006558YS02006561 CONDUIT   1095.92     0  01:57      3.88    2.42    1.00
  YS02001633YS02163601 CONDUIT    417.24     0  01:51      0.53    0.44    1.00
  YS02001644YS02001647 CONDUIT    691.70     0  02:57      0.88    0.41    1.00
  YS02001745YS02001748 CONDUIT    396.87     0  02:16      1.73    0.15    0.96
  YS02001748YS02001751 CONDUIT    397.35     0  02:16      1.25    0.20    1.00
  YS02001751YS02001754 CONDUIT    397.17     0  02:16      1.02    0.19    1.00
  YS02001754YS02001757 CONDUIT    397.20     0  02:16      0.51    0.16    1.00
  YS02001882YS02001884 CONDUIT     19.93     0  01:50      0.12    0.02    1.00
  YS02001884YS02001887 CONDUIT     43.79     0  01:53      0.09    0.06    1.00
  YS02001890YS02001895 CONDUIT    520.79     0  01:58      0.66    0.24    1.00
  YS02001895YS02001898 CONDUIT    521.17     0  01:58      0.66    0.90    1.00
  YS02001898YS02001901 CONDUIT    521.13     0  01:58      0.66    0.34    1.00
  YS02001901YS02001904 CONDUIT    521.38     0  01:58      0.66    0.81    1.00
  YS02001904YS02001907 CONDUIT    521.33     0  01:57      0.66    0.18    1.00
  YS02001887YS02001890 CONDUIT    606.26     0  02:16      0.77    1.04    1.00
  YS02001652YS02001649 CONDUIT    477.51     0  02:12      0.61    0.24    1.00
  YS02001655YS02001652 CONDUIT    477.03     0  02:12      1.09    0.23    1.00
  YS02001658YS02001655 CONDUIT    476.95     0  02:12      1.45    0.20    1.00
  YS02001661YS02001658 CONDUIT    506.68     0  02:13      1.85    0.20    1.00
  YS02001664YS02001661 CONDUIT    771.07     0  02:05      1.75    0.24    0.76
  YSB1154YSB6556       CONDUIT     43.64     0  01:53      0.17    0.08    0.72
  YSB1174YSB1171       CONDUIT     35.15     0  01:50      0.10    0.05    0.83
  YSB1171HS02004479    CONDUIT     78.01     0  01:53      0.54    0.05    0.67
  HS02004881HS02006253 CONDUIT    139.58     0  01:54      2.11    0.03    0.26
  YS02001793JiankangQianchi CONDUIT    997.05     0  01:57     13.01    0.08    1.00
  YS02001757CaochengTiaoxuchi CONDUIT   2139.06     0  02:03      3.75    0.94    1.00
  WSF200WS02003060     CONDUIT    810.99     0  01:58      1.95    0.18    0.40
  1                    CONDUIT   1114.93     0  02:03      3.42    0.39    0.43
  2                    CONDUIT    179.65     0  01:55      5.68    0.43    0.46
  3                    CONDUIT    597.65     0  00:00     10.05    0.95    0.86
  4                    CONDUIT      0.00     0  00:00      0.00    0.00    0.00
  CC-Pump-1            PUMP         0.00     0  00:00              0.00
  CC-Pump-2            PUMP       200.00     0  01:40              1.00
  JK-Pump-1            PUMP       300.00     0  00:00              1.00
  JK-Pump-2            PUMP       300.00     0  00:00              1.00
  XR-Pump-1            PUMP        95.00     0  00:00              1.00
  XR-Pump-2            PUMP         0.00     0  00:00              0.00
  XR-Pump-3            PUMP        95.00     0  00:00              1.00
  XR-Pump-4            PUMP        95.00     0  00:00              1.00
  
  
  ***************************
  Flow Classification Summary
  ***************************
  
  -------------------------------------------------------------------------------------
                      Adjusted    ---------- Fraction of Time in Flow Class ---------- 
                       /Actual         Up    Down  Sub   Sup   Up    Down  Norm  Inlet 
  Conduit               Length    Dry  Dry   Dry   Crit  Crit  Crit  Crit  Ltd   Ctrl  
  -------------------------------------------------------------------------------------
  WS02003066WSF200        1.00   0.06  0.00  0.00  0.00  0.94  0.00  0.00  0.57  0.00
  WS02006287WS02006284    1.00   0.03  0.01  0.00  0.56  0.40  0.00  0.00  0.65  0.00
  WS02006284WS02006280    1.00   0.03  0.00  0.00  0.00  0.00  0.00  0.97  0.00  0.00
  WS02006280WS02006229    1.00   0.03  0.00  0.00  0.00  0.00  0.00  0.97  0.00  0.00
  WS02006229WS02006228    1.00   0.00  0.00  0.00  0.99  0.00  0.00  0.01  0.00  0.00
  WS02006256WS02006235    1.00   0.00  0.00  0.00  1.00  0.00  0.00  0.00  0.00  0.00
  WS02006253WS02006251    1.00   0.02  0.01  0.00  0.97  0.00  0.00  0.00  0.00  0.00
  WS02006252WS02006251    1.00   0.05  0.00  0.00  0.00  0.00  0.95  0.00  0.00  0.00
  WS02006251WS02006249    1.00   0.00  0.00  0.00  1.00  0.00  0.00  0.00  0.18  0.00
  WS02006249WS02006248    1.00   0.00  0.01  0.00  0.94  0.00  0.04  0.00  0.00  0.00
  WS02006248WS02006247    1.00   0.02  0.00  0.00  0.98  0.00  0.00  0.01  0.07  0.00
  WS02006247WS02006245    1.00   0.02  0.00  0.00  0.97  0.00  0.00  0.01  0.00  0.00
  WS02006245WS02006243    1.00   0.01  0.00  0.00  0.96  0.00  0.00  0.03  0.01  0.00
  WS02006243WS02006242    1.00   0.01  0.00  0.00  0.99  0.00  0.00  0.00  0.17  0.00
  WS02006242WS02006240    1.00   0.00  0.00  0.00  0.99  0.00  0.00  0.00  0.00  0.00
  WS02006240WS02006239    1.00   0.00  0.00  0.00  0.97  0.00  0.00  0.03  0.01  0.00
  WS02006239WS02006238    1.00   0.00  0.00  0.00  1.00  0.00  0.00  0.00  0.00  0.00
  WS02006238WS02006235    1.00   0.00  0.00  0.00  1.00  0.00  0.00  0.00  0.00  0.00
  WS02006235WS02006234    1.00   0.00  0.00  0.00  0.97  0.00  0.03  0.00  0.00  0.00
  WS02006234WS02006232    1.00   0.00  0.00  0.00  1.00  0.00  0.00  0.00  0.05  0.00
  WS02006232WS02006231    1.00   0.00  0.00  0.00  0.99  0.00  0.01  0.00  0.00  0.00
  WS02006231WS02006230    1.00   0.00  0.00  0.00  0.51  0.00  0.48  0.00  0.00  0.00
  WS02006230WS02006229    1.00   0.00  0.00  0.00  0.99  0.00  0.00  0.01  0.01  0.00
  WS02006228WS02006109    1.00   0.00  0.00  0.00  1.00  0.00  0.00  0.00  0.00  0.00
  WS02006116WS02004401    1.00   0.02  0.00  0.00  0.98  0.00  0.00  0.00  0.00  0.00
  WS02006115WS02006116    1.00   0.02  0.00  0.00  0.97  0.00  0.00  0.01  0.01  0.00
  WS02006113WS02006111    1.00   0.02  0.00  0.00  0.08  0.91  0.00  0.00  0.09  0.00
  WS02006112WS02006115    1.00   0.02  0.00  0.00  0.98  0.00  0.00  0.00  0.00  0.00
  WS02006111WS02006112    1.00   0.02  0.00  0.00  0.98  0.00  0.00  0.00  0.88  0.00
  WS02006110WS02006113    1.00   0.01  0.00  0.00  0.98  0.00  0.00  0.00  0.00  0.00
  WS02006109WS02006110    1.00   0.00  0.01  0.00  0.98  0.00  0.00  0.00  0.00  0.00
  WS02004411WS02004412    1.00   0.04  0.00  0.00  0.96  0.00  0.00  0.00  0.00  0.00
  WS02004401WS02004402    1.00   0.02  0.00  0.00  0.98  0.00  0.00  0.00  0.00  0.00
  WS02004413WS02003067    1.00   0.05  0.01  0.00  0.00  0.00  0.94  0.00  0.00  0.00
  WS02004412WS02004413    1.00   0.04  0.00  0.00  0.95  0.00  0.00  0.00  0.00  0.00
  WS02004410WS02004411    1.00   0.04  0.00  0.00  0.96  0.00  0.00  0.00  0.00  0.00
  WS02004409WS02004410    1.00   0.04  0.00  0.00  0.96  0.00  0.00  0.00  0.00  0.00
  WS02004407WS02004409    1.00   0.04  0.00  0.00  0.95  0.01  0.00  0.00  0.80  0.00
  WS02004406WS02004407    1.00   0.00  0.04  0.00  0.96  0.00  0.00  0.00  0.00  0.00
  WS02004405WS02004406    1.00   0.00  0.00  0.00  1.00  0.00  0.00  0.00  0.02  0.00
  WS02004404WS02004405    1.00   0.00  0.00  0.00  1.00  0.00  0.00  0.00  0.00  0.00
  WS02004403WS02004404    1.00   0.00  0.02  0.00  0.98  0.00  0.00  0.00  0.02  0.00
  WS02004402WS02004403    1.00   0.02  0.00  0.00  0.98  0.00  0.00  0.00  0.00  0.00
  WS02004139WS02001211    1.00   0.00  0.00  0.00  0.99  0.00  0.00  0.00  0.00  0.00
  WS02004138WS02004139    1.00   0.00  0.00  0.00  0.99  0.01  0.00  0.00  1.00  0.00
  WS02003067WS02003066    1.00   0.06  0.00  0.00  0.94  0.00  0.00  0.00  0.00  0.00
  WS02001213WS02003059    1.00   0.00  0.00  0.00  0.99  0.00  0.00  0.00  0.00  0.00
  WS02001212WS02001213    1.00   0.00  0.00  0.00  0.91  0.00  0.08  0.00  0.00  0.00
  WS02001211WS02001212    1.00   0.00  0.00  0.00  1.00  0.00  0.00  0.00  0.00  0.00
  WS02003072WS02003073    1.00   0.00  0.00  0.00  0.00  0.00  0.00  1.00  0.00  0.00
  WS02003069WS02003072    1.00   0.00  0.00  0.00  0.99  0.01  0.00  0.00  0.20  0.00
  WS02003060WS02003069    1.00   0.00  0.00  0.00  0.98  0.02  0.00  0.00  0.10  0.00
  WS02003059WS02003060    1.00   0.00  0.00  0.00  0.99  0.01  0.00  0.00  0.01  0.00
  HS02004901HS02004770    1.00   0.03  0.00  0.00  0.97  0.00  0.00  0.00  0.00  0.00
  HS02004876HS02004881    1.00   0.02  0.00  0.00  0.84  0.15  0.00  0.00  0.00  0.00
  HS02004870HS02004876    1.00   0.01  0.00  0.00  0.99  0.00  0.00  0.00  0.95  0.00
  HS02004842HS02004848    1.00   0.00  0.03  0.00  0.97  0.00  0.00  0.00  0.57  0.00
  HS02004837HS02004842    1.00   0.00  0.00  0.00  0.99  0.01  0.00  0.00  0.11  0.00
  HS02004830HS02004837    1.00   0.00  0.00  0.00  1.00  0.00  0.00  0.00  0.99  0.00
  HS02004824HS02004830    1.00   0.00  0.00  0.00  1.00  0.00  0.00  0.00  0.03  0.00
  HS02004817HS02004824    1.00   0.00  0.00  0.00  1.00  0.00  0.00  0.00  0.94  0.00
  HS02004770HS02004777    1.00   0.00  0.03  0.00  0.97  0.00  0.00  0.00  0.03  0.00
  HS02004799HS02004480    1.00   0.00  0.01  0.00  0.96  0.00  0.02  0.00  0.00  0.00
  HS02004792HS02004799    1.00   0.00  0.00  0.00  0.99  0.01  0.00  0.00  0.98  0.00
  HS02004788HS02004792    1.00   0.00  0.00  0.00  0.99  0.01  0.00  0.00  0.98  0.00
  HS02004785HS02004788    1.00   0.00  0.00  0.00  1.00  0.00  0.00  0.00  0.00  0.00
  HS02004777HS02004785    1.00   0.00  0.00  0.00  1.00  0.00  0.00  0.00  0.13  0.00
  HS02004480HS02004478    1.00   0.03  0.00  0.00  0.62  0.00  0.00  0.34  0.00  0.00
  HS02004479HS02004480    1.00   0.02  0.00  0.00  0.98  0.00  0.00  0.00  0.12  0.00
  HS02004862HS02004870    1.00   0.00  0.00  0.00  1.00  0.00  0.00  0.00  0.04  0.00
  HS02004848HS02004852    1.00   0.03  0.00  0.00  0.97  0.00  0.00  0.00  0.78  0.00
  HS02004856HS02004862    1.00   0.00  0.04  0.00  0.96  0.00  0.00  0.00  0.82  0.00
  HS02004852HS02004856    1.00   0.03  0.00  0.00  0.97  0.00  0.00  0.00  0.77  0.00
  HS02004802HS02004478    1.00   0.03  0.00  0.00  0.97  0.00  0.00  0.00  0.03  0.00
  HS02004478WS02006287    1.00   0.04  0.00  0.00  0.69  0.28  0.00  0.00  0.62  0.00
  HS02004817HS02004807    1.00   0.00  0.03  0.00  0.97  0.00  0.00  0.00  0.01  0.00
  HS02004807HS02004802    1.00   0.03  0.00  0.00  0.96  0.00  0.00  0.00  0.00  0.00
  YS02001759YS02001757    1.00   0.00  0.00  0.00  1.00  0.00  0.00  0.00  0.16  0.00
  YS02001762YS02001759    1.00   0.00  0.00  0.00  1.00  0.00  0.00  0.00  0.03  0.00
  YS02001765YS02001762    1.00   0.00  0.00  0.00  1.00  0.00  0.00  0.00  0.14  0.00
  YS02001770YS02001767    1.00   0.00  0.00  0.00  1.00  0.00  0.00  0.00  0.00  0.00
  YS02001774YS02001770    1.00   0.00  0.03  0.00  0.97  0.00  0.00  0.00  0.03  0.00
  YS02001779YS02001774    1.00   0.00  0.00  0.00  1.00  0.00  0.00  0.00  0.18  0.00
  YS02001649YS02001757    1.00   0.00  0.00  0.00  1.00  0.00  0.00  0.00  0.16  0.00
  YS02001767YS02001765    1.00   0.00  0.00  0.00  1.00  0.00  0.00  0.00  0.00  0.00
  YS02006561YS02001783    1.00   0.04  0.00  0.00  0.53  0.43  0.00  0.00  0.51  0.00
  YS02001783YS02001784    1.00   0.00  0.04  0.00  0.96  0.00  0.00  0.00  0.00  0.00
  YS02001784YS02001785    1.00   0.00  0.00  0.00  1.00  0.00  0.00  0.00  0.17  0.00
  YS02001788YS02001790    1.00   0.00  0.00  0.00  0.56  0.44  0.00  0.00  0.43  0.00
  YS02001790YS02001791    1.00   0.00  0.00  0.00  0.53  0.47  0.00  0.00  0.37  0.00
  YS02001791YS02001793    1.00   0.00  0.00  0.00  0.53  0.47  0.00  0.00  0.01  0.00
  YS02001910YS02001907    1.00   0.00  0.00  0.00  0.98  0.00  0.00  0.02  0.12  0.00
  YS02001786YS02001788    1.00   0.00  0.00  0.00  0.56  0.44  0.00  0.00  0.00  0.00
  YS02001915YS02001910    1.00   0.00  0.00  0.00  0.99  0.01  0.00  0.00  0.16  0.00
  YS02001918YS02001915    1.00   0.00  0.01  0.00  0.99  0.00  0.00  0.00  0.52  0.00
  YS02001923YS02001920    1.00   0.00  0.00  0.00  1.00  0.00  0.00  0.00  0.74  0.00
  YS02001926YS02001923    1.00   0.00  0.02  0.00  0.31  0.00  0.67  0.00  0.00  0.00
  YS02001929YS02001926    1.00   0.00  0.03  0.00  0.97  0.00  0.00  0.00  0.66  0.00
  YS02001920YS02001918    1.00   0.00  0.01  0.00  0.99  0.00  0.00  0.00  0.00  0.00
  YS02001629YS02163301    1.00   0.04  0.00  0.00  0.96  0.00  0.00  0.00  0.00  0.00
  YS02001619YS02001622    1.00   0.03  0.00  0.00  0.97  0.00  0.00  0.00  0.00  0.00
  YS02001622YS02001625    1.00   0.03  0.00  0.00  0.97  0.00  0.00  0.00  0.05  0.00
  YS02001625YS02001629    1.00   0.03  0.01  0.00  0.95  0.00  0.01  0.00  0.00  0.00
  YS02163301YS02001633    1.00   0.00  0.04  0.00  0.96  0.00  0.00  0.00  0.00  0.00
  YS02163601YS02164001    1.00   0.00  0.03  0.00  0.97  0.00  0.00  0.00  0.00  0.00
  YS02164001YS02001641    1.00   0.01  0.01  0.00  0.97  0.00  0.00  0.00  0.06  0.00
  YS02001641YS02001644    1.00   0.00  0.01  0.00  0.99  0.00  0.00  0.00  0.00  0.00
  YS02001647YS02001649    1.00   0.00  0.04  0.00  0.96  0.00  0.00  0.00  0.01  0.00
  YS02006553YS02006556    1.00   0.01  0.00  0.00  0.99  0.00  0.00  0.00  0.03  0.00
  YS02006556YS02006558    1.00   0.00  0.00  0.00  1.00  0.00  0.00  0.00  0.00  0.00
  YSB6556YSB1171          1.00   0.02  0.01  0.00  0.97  0.00  0.00  0.00  0.00  0.00
  YS02001907YS02006553    1.00   0.00  0.01  0.00  0.98  0.00  0.00  0.00  0.00  0.00
  YS02006558YS02006561    1.00   0.04  0.00  0.00  0.33  0.63  0.00  0.00  0.42  0.00
  YS02001633YS02163601    1.00   0.00  0.01  0.00  0.99  0.00  0.00  0.00  0.15  0.00
  YS02001644YS02001647    1.00   0.00  0.04  0.00  0.96  0.00  0.00  0.00  0.00  0.00
  YS02001745YS02001748    1.00   0.00  0.00  0.00  0.93  0.00  0.00  0.07  0.01  0.00
  YS02001748YS02001751    1.00   0.00  0.00  0.00  0.98  0.02  0.00  0.00  0.14  0.00
  YS02001751YS02001754    1.00   0.00  0.00  0.00  0.95  0.00  0.00  0.04  0.01  0.00
  YS02001754YS02001757    1.00   0.00  0.00  0.00  0.99  0.01  0.00  0.00  0.18  0.00
  YS02001882YS02001884    1.00   0.04  0.00  0.00  0.96  0.00  0.00  0.00  0.00  0.00
  YS02001884YS02001887    1.00   0.02  0.01  0.00  0.97  0.00  0.00  0.00  0.00  0.00
  YS02001890YS02001895    1.00   0.00  0.03  0.00  0.96  0.00  0.00  0.00  0.00  0.00
  YS02001895YS02001898    1.00   0.04  0.00  0.00  0.96  0.00  0.00  0.00  0.00  0.00
  YS02001898YS02001901    1.00   0.04  0.00  0.00  0.96  0.00  0.00  0.00  0.01  0.00
  YS02001901YS02001904    1.00   0.04  0.00  0.00  0.96  0.00  0.00  0.00  0.00  0.00
  YS02001904YS02001907    1.00   0.00  0.04  0.00  0.96  0.00  0.00  0.00  0.00  0.00
  YS02001887YS02001890    1.00   0.00  0.00  0.00  0.98  0.00  0.01  0.00  0.00  0.00
  YS02001652YS02001649    1.00   0.00  0.00  0.00  1.00  0.00  0.00  0.00  0.16  0.00
  YS02001655YS02001652    1.00   0.00  0.00  0.00  0.95  0.00  0.00  0.04  0.01  0.00
  YS02001658YS02001655    1.00   0.00  0.04  0.00  0.95  0.02  0.00  0.00  0.02  0.00
  YS02001661YS02001658    1.00   0.04  0.00  0.00  0.93  0.04  0.00  0.00  0.00  0.00
  YS02001664YS02001661    1.00   0.03  0.00  0.00  0.93  0.03  0.00  0.00  0.10  0.00
  YSB1154YSB6556          1.00   0.03  0.00  0.00  0.97  0.00  0.00  0.00  0.02  0.00
  YSB1174YSB1171          1.00   0.02  0.01  0.00  0.97  0.00  0.00  0.00  0.00  0.00
  YSB1171HS02004479       1.00   0.02  0.00  0.00  0.98  0.00  0.00  0.00  0.11  0.00
  HS02004881HS02006253    1.00   0.02  0.00  0.00  0.91  0.01  0.00  0.07  0.76  0.00
  YS02001793JiankangQianchi    1.00   0.00  0.00  0.00  0.69  0.31  0.00  0.00  0.14  0.00
  YS02001757CaochengTiaoxuchi    1.00   0.00  0.05  0.00  0.90  0.05  0.00  0.00  0.00  0.00
  WSF200WS02003060        1.00   0.00  0.06  0.00  0.72  0.22  0.00  0.00  0.06  0.00
  1                       1.00   0.00  0.00  0.00  0.00  1.00  0.00  0.00  0.41  0.00
  2                       1.00   0.75  0.00  0.00  0.00  0.25  0.00  0.00  0.02  0.00
  3                       1.00   0.05  0.00  0.00  0.00  0.95  0.00  0.00  0.00  0.00
  4                       1.00   1.00  0.00  0.00  0.00  0.00  0.00  0.00  0.00  0.00
  
  
  *************************
  Conduit Surcharge Summary
  *************************
  
  ----------------------------------------------------------------------------
                                                           Hours        Hours 
                         --------- Hours Full --------   Above Full   Capacity
  Conduit                Both Ends  Upstream  Dnstream   Normal Flow   Limited
  ----------------------------------------------------------------------------
  WS02006229WS02006228        1.91      1.97      1.91      5.86         1.91
  WS02006256WS02006235        6.27      6.27      7.68      4.75         0.01
  WS02006249WS02006248        0.01      0.01      0.01      5.36         0.01
  WS02006248WS02006247        0.01      0.01      0.22      0.01         0.01
  WS02006247WS02006245        0.34      0.41      0.34      5.95         0.33
  WS02006245WS02006243        0.43      0.43      0.61      0.01         0.01
  WS02006243WS02006242        0.66      0.66      1.45      0.01         0.01
  WS02006242WS02006240        1.18      1.18      1.52      0.01         0.01
  WS02006240WS02006239        1.37      1.37      1.45      0.01         0.01
  WS02006239WS02006238        1.56      1.56      1.61      0.01         0.01
  WS02006238WS02006235        1.59      1.59      1.66      0.01         0.01
  WS02006235WS02006234        1.46      1.46      1.57      6.29         0.04
  WS02006234WS02006232        1.52      1.52      1.73      0.01         0.01
  WS02006232WS02006231        0.99      0.99      1.73      0.01         0.01
  WS02006231WS02006230        0.82      0.82      1.35      6.26         0.02
  WS02006230WS02006229        2.52      5.70      2.52      6.32         2.50
  WS02006228WS02006109        1.93      2.15      1.93      6.12         1.93
  WS02006116WS02004401        0.57      0.57      0.58      0.52         0.50
  WS02006115WS02006116        0.42      0.42      0.43      0.27         0.27
  WS02006112WS02006115        0.38      0.38      1.56      0.01         0.01
  WS02006111WS02006112        0.01      0.01      5.90      0.01         0.01
  WS02006110WS02006113        0.01      0.01      2.05      0.01         0.01
  WS02006109WS02006110        1.45      1.45      2.15      1.46         0.01
  WS02004411WS02004412        0.01      0.01      0.01      0.55         0.01
  WS02004401WS02004402        0.58      0.58      0.62      0.01         0.01
  WS02004410WS02004411        0.01      0.01      0.01      0.49         0.01
  WS02004409WS02004410        0.01      0.01      0.01      0.32         0.01
  WS02004406WS02004407        0.01      0.01      0.74      0.01         0.01
  WS02004405WS02004406        0.74      0.79      0.74      1.51         0.74
  WS02004404WS02004405        0.79      0.86      0.79      6.24         0.79
  WS02004403WS02004404        0.62      0.62      0.86      0.01         0.01
  WS02004402WS02004403        0.62      0.62      0.62      0.56         0.55
  WS02003072WS02003073        0.01      0.01      0.01      6.01         0.01
  HS02004876HS02004881        0.01      0.01      0.01      0.49         0.01
  HS02004785HS02004788        0.01      0.01      0.01      0.35         0.01
  HS02004480HS02004478        0.01      0.01      0.01      0.79         0.01
  YS02001759YS02001757        6.09      6.09      6.12      0.01         0.01
  YS02001762YS02001759        6.09      6.09      6.09      0.01         0.01
  YS02001765YS02001762        6.08      6.08      6.09      0.01         0.01
  YS02001770YS02001767        6.07      6.07      6.07      0.44         0.76
  YS02001774YS02001770        6.07      6.07      6.08      0.01         0.01
  YS02001779YS02001774        6.04      6.04      6.08      0.01         0.01
  YS02001649YS02001757        6.08      6.08      6.12      0.01         0.01
  YS02001767YS02001765        6.07      6.07      6.08      0.01         0.01
  YS02006561YS02001783        1.61      1.61      2.14      0.01         0.01
  YS02001783YS02001784        2.13      2.14      2.18      2.02         1.92
  YS02001784YS02001785        2.07      2.18      2.07      2.74         2.07
  YS02001788YS02001790        2.05      2.05      3.14      0.01         0.01
  YS02001790YS02001791        3.14      3.14      3.17      1.52         1.48
  YS02001791YS02001793        3.17      3.17      3.25      0.01         0.01
  YS02001910YS02001907        1.94      1.94      2.25      0.01         0.01
  YS02001786YS02001788        2.05      2.07      2.05      2.39         2.04
  YS02001915YS02001910        1.75      1.75      1.94      0.01         0.01
  YS02001918YS02001915        1.51      1.51      1.75      0.01         0.01
  YS02001923YS02001920        1.32      1.32      1.54      0.01         0.01
  YS02001926YS02001923        0.01      0.01      0.01      0.01         0.01
  YS02001929YS02001926        0.01      0.01      0.01      0.01         0.01
  YS02001920YS02001918        1.51      1.51      1.54      0.01         0.01
  YS02001629YS02163301        6.06      6.06      6.07      0.01         0.01
  YS02001619YS02001622        6.02      6.02      6.02      0.01         0.01
  YS02001622YS02001625        6.02      6.02      6.05      0.01         0.01
  YS02001625YS02001629        6.02      6.02      6.05      0.01         0.01
  YS02163301YS02001633        6.07      6.07      6.08      0.01         0.01
  YS02163601YS02164001        6.08      6.08      6.09      0.01         0.01
  YS02164001YS02001641        6.08      6.08      6.08      0.01         0.02
  YS02001641YS02001644        6.08      6.08      6.08      2.21         2.12
  YS02001647YS02001649        6.05      6.05      6.08      0.01         0.01
  YS02006553YS02006556        2.11      2.11      2.29      0.01         0.01
  YS02006556YS02006558        2.17      2.17      2.35      0.01         0.01
  YSB6556YSB1171              0.01      0.01      0.14      0.01         0.01
  YS02001907YS02006553        2.75      2.75      2.95      0.01         0.01
  YS02006558YS02006561        1.78      2.09      1.78      2.63         1.78
  YS02001633YS02163601        6.08      6.08      6.09      0.01         0.01
  YS02001644YS02001647        6.05      6.05      6.08      0.01         0.01
  YS02001745YS02001748        0.01      0.01      5.99      0.01         0.01
  YS02001748YS02001751        6.00      6.00      6.02      0.01         0.01
  YS02001751YS02001754        6.02      6.02      6.05      0.01         0.01
  YS02001754YS02001757        6.05      6.05      6.12      0.01         0.01
  YS02001882YS02001884        1.76      1.76      1.79      0.01         0.01
  YS02001884YS02001887        1.84      1.84      1.87      0.01         0.01
  YS02001890YS02001895        1.73      1.73      1.96      0.01         0.01
  YS02001895YS02001898        1.71      1.71      1.73      0.01         0.01
  YS02001898YS02001901        1.74      1.74      1.83      0.01         0.01
  YS02001901YS02001904        1.81      1.81      1.83      0.01         0.01
  YS02001904YS02001907        1.81      1.81      2.31      0.01         0.01
  YS02001887YS02001890        1.90      1.90      1.92      0.20         0.01
  YS02001652YS02001649        6.06      6.06      6.08      0.01         0.01
  YS02001655YS02001652        6.02      6.02      6.05      0.01         0.01
  YS02001658YS02001655        5.99      5.99      6.02      0.01         0.01
  YS02001661YS02001658        0.24      0.24      5.99      0.01         0.01
  YS02001664YS02001661        0.01      0.01      1.87      0.01         0.01
  YS02001793JiankangQianchi        3.23      3.23      4.21      0.01         0.01
  YS02001757CaochengTiaoxuchi        5.59      5.59      6.12      0.01         0.01
  3                           0.01      0.01      0.01      0.01         0.01
  
  
  ***************
  Pumping Summary
  ***************
  
  ---------------------------------------------------------------------------------------------------------
                                                  Min       Avg       Max     Total     Power    % Time Off
                        Percent   Number of      Flow      Flow      Flow    Volume     Usage    Pump Curve
  Pump                 Utilized   Start-Ups       LPS       LPS       LPS  10^6 ltr     Kw-hr    Low   High
  ---------------------------------------------------------------------------------------------------------
  CC-Pump-1                0.00           0      0.00      0.00      0.00     0.000      0.00    0.0    0.0
  CC-Pump-2               79.28           1      0.00    194.41    200.00     4.329      3.95    0.0    5.1
  JK-Pump-1               63.83           6      0.00    161.11    300.00     2.143     17.10    0.0    0.0
  JK-Pump-2              100.00           1      0.00    243.06    300.00     5.649     51.06    0.0    0.0
  XR-Pump-1               89.36           7      0.00     70.78     95.00     1.767     12.57    0.0    0.0
  XR-Pump-2                0.00           0      0.00      0.00      0.00     0.000      0.00    0.0    0.0
  XR-Pump-3              100.00           2      0.00     91.87     95.00     2.565     18.17    0.0    0.0
  XR-Pump-4              100.00           2      0.00     88.32     95.00     2.508     17.99    0.0    0.0
  

  Analysis begun on:  Thu Jan  6 15:30:22 2022
  Analysis ended on:  Thu Jan  6 15:30:25 2022
  Total elapsed time: 00:00:03