
  EPA STORM WATER MANAGEMENT MODEL - VERSION 5.1 (Build 5.3.0.dev0)
  --------------------------------------------------------------

  WARNING 04: minimum elevation drop used for Conduit WS02004404WS02004405
  WARNING 03: negative offset ignored for Link YS02001904YS02001907
  
  *********************************************************
  NOTE: The summary statistics displayed in this report are
  based on results found at every computational time step,  
  not just on results from each reporting time step.
  *********************************************************
  
  ****************
  Analysis Options
  ****************
  Flow Units ............... LPS
  Process Models:
    Rainfall/Runoff ........ YES
    RDII ................... NO
    Snowmelt ............... NO
    Groundwater ............ NO
    Flow Routing ........... YES
    Ponding Allowed ........ NO
    Water Quality .......... NO
  Infiltration Method ...... HORTON
  Flow Routing Method ...... DYNWAVE
  Surcharge Method ......... EXTRAN
  Starting Date ............ 08/28/2015 08:00:00
  Ending Date .............. 08/28/2015 18:00:00
  Antecedent Dry Days ...... 8.0
  Report Time Step ......... 00:01:00
  Wet Time Step ............ 00:01:00
  Dry Time Step ............ 00:01:00
  Routing Time Step ........ 5.00 sec
  Variable Time Step ....... YES
  Maximum Trials ........... 8
  Number of Threads ........ 4
  Head Tolerance ........... 0.001500 m
  
  
  **************************        Volume         Depth
  Runoff Quantity Continuity     hectare-m            mm
  **************************     ---------       -------
  Total Precipitation ......         5.556        12.164
  Evaporation Loss .........         0.000         0.000
  Infiltration Loss ........         1.434         3.139
  Surface Runoff ...........         3.246         7.107
  Final Storage ............         0.877         1.919
  Continuity Error (%) .....        -0.009
  
  
  **************************        Volume        Volume
  Flow Routing Continuity        hectare-m      10^6 ltr
  **************************     ---------     ---------
  Dry Weather Inflow .......         0.787         7.870
  Wet Weather Inflow .......         3.245        32.454
  Groundwater Inflow .......         0.000         0.000
  RDII Inflow ..............         0.000         0.000
  External Inflow ..........         0.131         1.307
  External Outflow .........         3.419        34.188
  Flooding Loss ............         0.661         6.611
  Evaporation Loss .........         0.000         0.000
  Exfiltration Loss ........         0.000         0.000
  Initial Stored Volume ....         0.076         0.761
  Final Stored Volume ......         0.445         4.454
  Continuity Error (%) .....        -6.752
  
  
  *************************
  Highest Continuity Errors
  *************************
  Node JK-storage (-29.78%)
  Node HS02004842 (16.11%)
  Node YS02001884 (8.32%)
  Node YS02001774 (6.44%)
  Node YSB1171 (3.10%)
  
  
  ***************************
  Time-Step Critical Elements
  ***************************
  Link 3 (76.69%)
  Link WS02006252WS02006251 (15.82%)
  Link WS02006238WS02006235 (2.16%)
  
  
  ********************************
  Highest Flow Instability Indexes
  ********************************
  Link WS02006252WS02006251 (49)
  Link YS02001619YS02001622 (32)
  Link YS02001629YS02163301 (31)
  Link YS02163301YS02001633 (31)
  Link YS02163601YS02164001 (30)
  
  
  *************************
  Routing Time Step Summary
  *************************
  Minimum Time Step           :     0.46 sec
  Average Time Step           :     0.74 sec
  Maximum Time Step           :     5.00 sec
  Percent in Steady State     :    -0.00
  Average Iterations per Step :     4.18
  Percent Not Converging      :    20.19
  
  
  ***************************
  Subcatchment Runoff Summary
  ***************************
  
  ------------------------------------------------------------------------------------------------------------------------------
                            Total      Total      Total      Total     Imperv       Perv      Total       Total     Peak  Runoff
                           Precip      Runon       Evap      Infil     Runoff     Runoff     Runoff      Runoff   Runoff   Coeff
  Subcatchment                 mm         mm         mm         mm         mm         mm         mm    10^6 ltr      LPS
  ------------------------------------------------------------------------------------------------------------------------------
  sub0                      12.16       0.00       0.00       0.85      10.05       0.00      10.05        0.01     1.91   0.826
  sub1                      12.16       0.00       0.00       1.34       9.59       0.00       9.59        0.06    14.15   0.788
  sub2                      12.16       0.00       0.00       4.50       6.78       0.00       6.78        0.06    13.75   0.557
  sub3                      12.16       0.00       0.00       4.50       6.75       0.00       6.75        0.15    32.07   0.555
  sub4                      12.16       0.00       0.00       1.34       9.49       0.00       9.49        0.20    40.20   0.780
  sub5                      12.16       0.00       0.00       0.85      10.02       0.00      10.02        0.11    25.19   0.824
  sub7                      12.16       0.00       0.00       1.09       9.82       0.00       9.82        0.03     7.55   0.808
  sub8                      12.16       0.00       0.00       1.09       9.82       0.00       9.82        0.06    14.17   0.807
  sub9                      12.16       0.00       0.00       1.09       9.82       0.00       9.82        0.05    10.64   0.807
  sub10                     12.16       0.00       0.00       0.97       9.92       0.00       9.92        0.11    24.40   0.815
  sub11                     12.16       0.00       0.00       0.97       9.93       0.00       9.93        0.12    26.15   0.816
  sub12                     12.16       0.00       0.00       1.58       9.40       0.00       9.40        0.08    19.06   0.773
  sub14                     12.16       0.00       0.00       1.09       9.82       0.00       9.82        0.09    21.02   0.807
  sub15                     12.16       0.00       0.00       3.65       7.55       0.00       7.55        0.13    29.11   0.621
  sub16                     12.16       0.00       0.00       4.01       7.24       0.00       7.24        0.08    17.47   0.595
  sub17                     12.16       0.00       0.00       3.89       7.34       0.00       7.34        0.06    14.47   0.604
  sub22                     12.16       0.00       0.00       5.23       6.15       0.00       6.15        0.39    88.27   0.506
  sub23                     12.16       0.00       0.00       4.50       6.80       0.00       6.80        0.32    73.89   0.559
  sub60                     12.16       0.00       0.00       1.46       8.26       0.00       8.26        2.50   297.17   0.679
  sub61                     12.16       0.00       0.00       2.07       8.23       0.00       8.23        2.54   359.80   0.677
  sub62                     12.16       0.00       0.00       0.97       9.00       0.00       9.00        2.77   372.87   0.740
  sub63                     12.16       0.00       0.00       3.53       7.16       0.00       7.16        2.17   327.80   0.589
  sub64                     12.16       0.00       0.00       1.82       7.94       0.00       7.94        2.41   282.66   0.653
  sub65                     12.16       0.00       0.00       1.58       8.08       0.00       8.08        2.49   287.20   0.665
  sub66                     12.16       0.00       0.00       3.53       6.77       0.00       6.77        2.07   257.27   0.556
  sub67                     12.16       0.00       0.00       0.97       9.36       0.00       9.36        2.89   452.90   0.769
  sub68                     12.16       0.00       0.00       1.70       8.63       0.00       8.63        2.65   391.99   0.709
  sub69                     12.16       0.00       0.00       1.82       8.82       0.00       8.82        2.06   355.79   0.725
  sub70                     12.16       9.00       0.00       7.10      12.09       0.10      12.19        2.79   335.00   0.576
  sub71                     12.16       0.00       0.00       0.97       8.83       0.00       8.83        2.08   263.63   0.726
  sub72                     12.16       0.00       0.00       0.85       7.42       0.00       7.42        1.51   129.40   0.610
  sub73                     12.16      11.86       0.00       8.09      13.55       0.08      13.63        3.20   300.52   0.567
  sub74                     12.16       0.00       0.00       9.12       2.62       0.00       2.62        1.05   189.59   0.215
  
  
  ******************
  Node Depth Summary
  ******************
  
  ---------------------------------------------------------------------------------
                                 Average  Maximum  Maximum  Time of Max    Reported
                                   Depth    Depth      HGL   Occurrence   Max Depth
  Node                 Type       Meters   Meters   Meters  days hr:min      Meters
  ---------------------------------------------------------------------------------
  WS02001211           JUNCTION     0.70     0.74     5.58     0  03:08        0.74
  WS02001212           JUNCTION     0.42     0.47     5.54     0  03:07        0.47
  WS02001213           JUNCTION     0.66     0.74     5.50     0  03:07        0.74
  WS02003069           JUNCTION     0.49     0.60     5.19     0  03:06        0.60
  WS02003072           JUNCTION     0.55     0.66     5.03     0  03:07        0.66
  WS02003073           JUNCTION     0.33     0.41     4.47     0  03:07        0.41
  WS02003060           JUNCTION     0.43     0.53     5.46     0  03:06        0.53
  WS02003066           JUNCTION     0.26     0.33     5.89     0  03:05        0.33
  WS02003059           JUNCTION     0.72     0.80     5.49     0  03:06        0.80
  WS02003067           JUNCTION     0.62     0.75     6.07     0  03:04        0.75
  WS02004401           JUNCTION     0.75     1.00     7.00     0  03:02        0.99
  WS02004402           JUNCTION     0.78     1.01     6.97     0  03:02        1.01
  WS02004403           JUNCTION     0.79     1.01     6.94     0  03:02        1.01
  WS02004404           JUNCTION     0.87     1.07     6.92     0  03:02        1.07
  WS02004406           JUNCTION     0.87     1.04     6.87     0  03:02        1.04
  WS02004409           JUNCTION     0.56     0.77     6.54     0  03:04        0.77
  WS02004410           JUNCTION     0.58     0.77     6.49     0  03:04        0.77
  WS02004411           JUNCTION     0.59     0.77     6.45     0  03:04        0.77
  WS02004412           JUNCTION     0.60     0.77     6.41     0  03:04        0.77
  WS02004413           JUNCTION     0.76     0.92     6.39     0  03:05        0.92
  WS02004405           JUNCTION     0.86     1.06     6.91     0  03:02        1.06
  WS02006109           JUNCTION     0.84     1.12     7.74     0  03:02        1.11
  WS02006110           JUNCTION     0.81     1.03     7.62     0  02:53        1.01
  WS02006111           JUNCTION     0.25     0.39     7.10     0  03:03        0.39
  WS02006112           JUNCTION     0.93     1.22     7.10     0  03:03        1.21
  WS02006113           JUNCTION     0.39     0.52     7.41     0  03:02        0.52
  WS02006115           JUNCTION     0.64     0.92     7.06     0  03:03        0.92
  WS02006116           JUNCTION     0.72     0.99     7.03     0  03:03        0.99
  WS02006230           JUNCTION     0.85     1.20     7.95     0  03:02        1.20
  WS02006231           JUNCTION     0.58     0.86     7.98     0  03:02        0.86
  WS02006232           JUNCTION     0.72     0.98     8.02     0  03:01        0.98
  WS02006234           JUNCTION     0.66     0.90     8.06     0  03:02        0.90
  WS02006235           JUNCTION     0.70     0.93     8.09     0  03:02        0.92
  WS02006238           JUNCTION     0.73     0.96     8.10     0  03:02        0.95
  WS02006240           JUNCTION     0.65     0.84     8.14     0  03:01        0.84
  WS02006242           JUNCTION     0.71     0.89     8.16     0  03:02        0.89
  WS02006243           JUNCTION     0.60     0.77     8.19     0  03:01        0.77
  WS02006245           JUNCTION     0.58     0.73     8.22     0  03:02        0.73
  WS02006247           JUNCTION     0.59     0.74     8.24     0  03:02        0.74
  WS02006248           JUNCTION     0.53     0.66     8.25     0  03:02        0.66
  WS02006249           JUNCTION     0.55     0.67     8.27     0  03:02        0.67
  WS02006239           JUNCTION     0.70     0.90     8.11     0  03:02        0.90
  WS02006251           JUNCTION     0.57     0.72     8.39     0  03:01        0.72
  WS02006252           JUNCTION     0.52     0.59     8.84     0  05:01        0.59
  WS02006253           JUNCTION     0.59     0.75     8.39     0  03:01        0.75
  WS02006256           JUNCTION     1.11     2.35     9.28     0  00:00        1.22
  WS02004138           JUNCTION     0.16     0.17     7.42     0  00:00        0.17
  WS02004407           JUNCTION     0.25     0.33     6.65     0  03:04        0.33
  WS02006228           JUNCTION     0.85     1.19     7.85     0  03:02        1.19
  WS02006229           JUNCTION     0.84     1.21     7.90     0  03:02        1.21
  WS02006280           JUNCTION     0.07     0.19     8.46     0  03:02        0.19
  WS02006284           JUNCTION     0.37     0.55     8.95     0  03:02        0.55
  WS02006287           JUNCTION     0.10     0.28     9.24     0  03:01        0.28
  WSF200               JUNCTION     0.25     0.36     5.59     0  03:05        0.36
  HS02004901           JUNCTION     0.13     0.28    10.10     0  03:01        0.28
  HS02004881           JUNCTION     0.01     0.04     9.07     0  03:01        0.04
  HS02004876           JUNCTION     0.04     0.12     9.15     0  03:01        0.12
  HS02004870           JUNCTION     0.02     0.06     9.35     0  03:01        0.06
  HS02004862           JUNCTION     0.02     0.07     9.46     0  03:01        0.07
  HS02004856           JUNCTION     0.08     0.13     9.55     0  03:01        0.13
  HS02004852           JUNCTION     0.01     0.05     9.56     0  03:01        0.05
  HS02004848           JUNCTION     0.01     0.05     9.65     0  03:01        0.05
  HS02004842           JUNCTION     0.33     0.38     9.65     0  03:01        0.38
  HS02004837           JUNCTION     0.03     0.07     9.65     0  03:01        0.07
  HS02004830           JUNCTION     0.04     0.08     9.55     0  03:01        0.08
  HS02004824           JUNCTION     0.02     0.06     9.46     0  03:01        0.06
  HS02004817           JUNCTION     0.44     0.60     9.44     0  03:01        0.60
  HS02004807           JUNCTION     0.13     0.27     9.44     0  03:01        0.27
  HS02004802           JUNCTION     0.16     0.30     9.43     0  03:01        0.30
  HS02004799           JUNCTION     0.12     0.33     9.54     0  03:01        0.33
  HS02004792           JUNCTION     0.03     0.14     9.66     0  03:01        0.14
  HS02004788           JUNCTION     0.03     0.10    10.00     0  03:01        0.10
  HS02004785           JUNCTION     0.05     0.17    10.07     0  03:01        0.17
  HS02004777           JUNCTION     0.15     0.30    10.10     0  03:01        0.30
  HS02004770           JUNCTION     0.12     0.27    10.10     0  03:01        0.27
  HS02004480           JUNCTION     0.08     0.26     9.50     0  03:01        0.26
  HS02004479           JUNCTION     0.12     0.30     9.50     0  03:01        0.30
  HS02004478           JUNCTION     0.06     0.18     9.41     0  03:01        0.18
  YS02001745           JUNCTION     0.57     0.86     8.38     0  03:23        0.86
  YS02001748           JUNCTION     0.97     2.27     9.35     0  02:46        1.30
  YS02001751           JUNCTION     1.15     2.20     9.08     0  02:40        1.51
  YS02001754           JUNCTION     1.41     2.20     8.81     0  02:47        1.80
  YS02001762           JUNCTION     1.62     2.11     8.51     0  02:47        2.02
  YS02001765           JUNCTION     1.57     2.05     8.50     0  02:47        1.97
  YS02001767           JUNCTION     1.53     2.00     8.49     0  02:46        1.92
  YS02001770           JUNCTION     1.53     1.95     8.44     0  02:46        1.90
  YS02001774           JUNCTION     1.60     2.02     8.45     0  02:46        1.96
  YS02001779           JUNCTION     1.34     1.68     8.37     0  02:41        1.68
  YS02001882           JUNCTION     0.48     1.70     8.42     0  02:57        1.60
  YS02001884           JUNCTION     0.57     1.79     8.41     0  02:57        1.70
  YS02001759           JUNCTION     1.65     2.13     8.50     0  02:47        2.05
  YS02001887           JUNCTION     0.65     1.84     8.37     0  02:57        1.78
  YS02001890           JUNCTION     0.68     1.81     8.32     0  02:57        1.79
  YS02001898           JUNCTION     0.45     1.57     8.31     0  02:57        1.54
  YS02001901           JUNCTION     0.57     1.68     8.29     0  02:57        1.67
  YS02001904           JUNCTION     0.55     1.64     8.27     0  02:57        1.63
  YS02001907           JUNCTION     0.88     1.96     8.25     0  02:57        1.96
  YS02001910           JUNCTION     0.67     1.81     8.32     0  02:59        1.78
  YS02001915           JUNCTION     0.46     1.65     8.37     0  02:59        1.59
  YS02001918           JUNCTION     0.23     1.39     8.46     0  02:59        1.28
  YS02001619           JUNCTION     1.12     1.61     8.54     0  02:43        1.47
  YS02001629           JUNCTION     1.48     1.85     8.40     0  02:43        1.84
  YS02001641           JUNCTION     1.59     1.95     8.38     0  02:46        1.93
  YS02001644           JUNCTION     1.59     1.92     8.35     0  02:44        1.92
  YS02001652           JUNCTION     1.43     2.16     8.76     0  03:00        1.92
  YS02001655           JUNCTION     1.18     2.20     9.05     0  02:41        1.81
  YS02001920           JUNCTION     0.33     1.50     8.50     0  02:59        1.35
  YS02001923           JUNCTION     0.18     1.28     8.54     0  02:59        1.12
  YS02001926           JUNCTION     0.24     1.17     8.61     0  02:59        0.98
  YS02001929           JUNCTION     0.13     0.79     8.48     0  03:00        0.79
  YS02001658           JUNCTION     0.91     2.30     9.44     0  02:44        1.93
  YS02001661           JUNCTION     0.68     2.46     9.86     0  03:03        2.02
  YS02001664           JUNCTION     0.25     0.57     8.49     0  02:58        0.56
  YS02001622           JUNCTION     1.14     1.62     8.52     0  02:44        1.49
  YS02001633           JUNCTION     1.58     1.96     8.42     0  02:46        1.94
  YS02001649           JUNCTION     1.63     2.05     8.44     0  02:44        2.05
  YS02001757           JUNCTION     1.75     2.21     8.47     0  02:46        2.15
  YS02001895           JUNCTION     0.44     1.57     8.32     0  02:58        1.55
  YS02001625           JUNCTION     1.43     1.78     8.38     0  02:43        1.78
  YS02163301           JUNCTION     1.51     1.90     8.42     0  02:47        1.87
  YS02163601           JUNCTION     1.63     2.01     8.41     0  02:46        1.98
  YS02164001           JUNCTION     1.57     1.94     8.40     0  02:46        1.91
  YS02001647           JUNCTION     1.41     1.81     8.42     0  02:46        1.79
  YSB1154              JUNCTION     0.26     0.45     9.51     0  03:01        0.45
  YSB6556              JUNCTION     0.15     0.34     9.51     0  03:01        0.34
  YSB1174              JUNCTION     0.21     0.40     9.51     0  03:01        0.40
  YSB1171              JUNCTION     0.41     0.60     9.51     0  03:01        0.60
  YS02006553           JUNCTION     0.88     2.09     8.37     0  02:57        1.96
  YS02006561           JUNCTION     0.26     1.75     8.41     0  02:57        1.07
  YS02006556           JUNCTION     0.85     2.20     8.51     0  02:57        1.91
  YS02006558           JUNCTION     0.89     2.27     8.54     0  02:57        1.95
  YS02001783           JUNCTION     0.45     1.90     8.05     0  02:57        1.46
  YS02001784           JUNCTION     0.47     1.87     7.94     0  02:56        1.40
  YS02001786           JUNCTION     0.41     2.23     8.26     0  02:56        1.25
  YS02001788           JUNCTION     0.33     2.20     8.17     0  02:56        1.12
  YS02001790           JUNCTION     0.40     1.96     7.60     0  02:56        1.29
  YS02001791           JUNCTION     0.34     1.89     7.36     0  02:56        1.27
  YS02001793           JUNCTION     0.40     1.86     6.69     0  02:56        1.80
  WS02004139           JUNCTION     0.64     0.68     5.59     0  03:09        0.68
  WSC                  OUTFALL      0.33     0.41     1.08     0  03:08        0.41
  3                    OUTFALL      0.14     0.23     6.23     0  00:00        0.22
  4                    OUTFALL      0.09     0.17     7.17     0  03:02        0.17
  5                    OUTFALL      0.00     0.00     5.00     0  00:00        0.00
  JK-storage           STORAGE      1.35     5.80     6.60     0  02:57        5.80
  CC-storage           STORAGE      0.96     1.34     8.34     0  03:40        1.34
  XR-storage           STORAGE      6.41     7.72     5.72     0  03:07        7.72
  
  
  *******************
  Node Inflow Summary
  *******************
  
  -------------------------------------------------------------------------------------------------
                                  Maximum  Maximum                  Lateral       Total        Flow
                                  Lateral    Total  Time of Max      Inflow      Inflow     Balance
                                   Inflow   Inflow   Occurrence      Volume      Volume       Error
  Node                 Type           LPS      LPS  days hr:min    10^6 ltr    10^6 ltr     Percent
  -------------------------------------------------------------------------------------------------
  WS02001211           JUNCTION      7.35   294.38     0  03:16       0.264        9.99       0.238
  WS02001212           JUNCTION      0.00   296.34     0  03:16           0        9.97       0.145
  WS02001213           JUNCTION      0.00   297.94     0  03:15           0        9.95       0.169
  WS02003069           JUNCTION      0.32   988.72     0  03:06      0.0115        22.8       0.093
  WS02003072           JUNCTION      0.00   988.67     0  03:06           0        22.8       0.125
  WS02003073           JUNCTION      1.82   990.48     0  03:07      0.0656        22.8       0.139
  WS02003060           JUNCTION     16.53   988.30     0  03:05       0.595        22.8       0.087
  WS02003066           JUNCTION      0.00   681.49     0  03:05           0        12.3       0.028
  WS02003059           JUNCTION      0.00   300.32     0  03:15           0        9.94       0.291
  WS02003067           JUNCTION      0.00   681.46     0  03:05           0        12.4       0.061
  WS02004401           JUNCTION      0.00   684.45     0  03:02           0        12.5       0.132
  WS02004402           JUNCTION      0.00   682.75     0  03:03           0        12.5       0.128
  WS02004403           JUNCTION      0.00   682.87     0  03:03           0        12.5       0.119
  WS02004404           JUNCTION      0.16   682.96     0  03:03     0.00583        12.5       0.093
  WS02004406           JUNCTION      0.00   682.87     0  03:03           0        12.5       0.226
  WS02004409           JUNCTION      0.00   682.80     0  03:04           0        12.4       0.090
  WS02004410           JUNCTION      0.00   682.24     0  03:04           0        12.4       0.107
  WS02004411           JUNCTION      0.00   681.92     0  03:04           0        12.4       0.114
  WS02004412           JUNCTION      0.00   681.69     0  03:04           0        12.4       0.129
  WS02004413           JUNCTION      0.00   681.58     0  03:05           0        12.4       0.199
  WS02004405           JUNCTION      0.04   682.96     0  03:03     0.00137        12.5       0.141
  WS02006109           JUNCTION      1.23   674.77     0  03:02      0.0443        12.6       0.139
  WS02006110           JUNCTION      0.00   674.68     0  03:02           0        12.5       0.120
  WS02006111           JUNCTION      0.00   706.52     0  03:02           0        12.5       0.017
  WS02006112           JUNCTION     14.47   686.32     0  03:02       0.063        12.6       0.179
  WS02006113           JUNCTION      0.00   674.90     0  03:02           0        12.5       0.050
  WS02006115           JUNCTION      0.00   686.46     0  03:02           0        12.6       0.112
  WS02006116           JUNCTION      0.00   686.55     0  03:02           0        12.5       0.113
  WS02006230           JUNCTION     10.28   402.59     0  04:58        0.37        10.6       0.102
  WS02006231           JUNCTION      0.00   392.28     0  04:58           0        10.2       0.079
  WS02006232           JUNCTION      0.00   392.28     0  04:58           0        10.2       0.131
  WS02006234           JUNCTION      0.00   392.28     0  04:58           0        10.2       0.050
  WS02006235           JUNCTION      0.00   392.27     0  04:58           0        10.3       0.089
  WS02006238           JUNCTION      0.00   327.70     0  09:30           0        7.81       0.071
  WS02006240           JUNCTION      0.00   332.18     0  09:30           0         7.8       0.103
  WS02006242           JUNCTION      0.00   341.55     0  02:01           0         7.8       0.129
  WS02006243           JUNCTION      0.00   355.72     0  02:01           0        7.79       0.002
  WS02006245           JUNCTION      0.00   364.75     0  02:00           0         7.8       0.094
  WS02006247           JUNCTION      0.00   372.04     0  02:00           0         7.8       0.071
  WS02006248           JUNCTION      0.00   377.10     0  02:00           0        7.81       0.031
  WS02006249           JUNCTION      0.00   480.98     0  03:01           0        10.6       0.095
  WS02006239           JUNCTION      0.00   330.02     0  09:30           0         7.8       0.088
  WS02006251           JUNCTION      0.08   481.18     0  03:01     0.00277        10.6       0.074
  WS02006252           JUNCTION      0.00   400.00     0  01:59           0        10.2       0.005
  WS02006253           JUNCTION      1.91    81.00     0  03:01     0.00814       0.381       0.825
  WS02006256           JUNCTION      0.00   600.00     0  00:00           0        11.1       0.019
  WS02004138           JUNCTION      0.00   285.00     0  08:00           0        9.75       0.036
  WS02004407           JUNCTION      0.00   683.05     0  03:03           0        12.4       0.039
  WS02006228           JUNCTION      0.00   673.47     0  03:02           0        12.5       0.098
  WS02006229           JUNCTION      0.00   671.43     0  03:02           0        12.5       0.073
  WS02006280           JUNCTION      0.00   375.54     0  03:02           0        1.97       0.003
  WS02006284           JUNCTION      0.10   375.54     0  03:02     0.00344        1.97       0.060
  WS02006287           JUNCTION      0.00   375.26     0  03:01           0        1.97       0.035
  WSF200               JUNCTION      0.00   681.50     0  03:05           0        12.3       0.025
  HS02004901           JUNCTION     17.47    17.47     0  03:01      0.0757       0.076       2.337
  HS02004881           JUNCTION      7.55    79.19     0  03:01      0.0331       0.359       0.083
  HS02004876           JUNCTION     14.15    72.10     0  03:01      0.0638       0.327       0.143
  HS02004870           JUNCTION     14.17    58.27     0  03:01      0.0627       0.263       0.035
  HS02004862           JUNCTION     13.95    44.46     0  03:01      0.0703         0.2       0.076
  HS02004856           JUNCTION     10.64    30.80     0  03:01      0.0472       0.131       1.093
  HS02004852           JUNCTION      0.00    20.44     0  03:01           0      0.0843       0.042
  HS02004848           JUNCTION     32.07    32.07     0  03:01       0.152       0.152       0.019
  HS02004842           JUNCTION      0.00    11.42     0  03:01           0      0.0807      19.199
  HS02004837           JUNCTION     30.75    41.91     0  03:01       0.338       0.406       0.200
  HS02004830           JUNCTION      0.15    41.84     0  03:01      0.0054       0.397       0.310
  HS02004824           JUNCTION     40.25    81.79     0  03:01         0.2       0.596       0.089
  HS02004817           JUNCTION      0.60    82.18     0  03:01      0.0216       0.617       2.774
  HS02004807           JUNCTION     26.15   107.25     0  03:01       0.115       0.715       0.598
  HS02004802           JUNCTION      0.00   106.49     0  03:01           0       0.712       0.565
  HS02004799           JUNCTION     21.02   227.51     0  03:01      0.0934        1.08       0.227
  HS02004792           JUNCTION     88.55   207.33     0  03:01       0.399       0.984       0.040
  HS02004788           JUNCTION     30.78   119.38     0  03:01        0.19       0.587       0.064
  HS02004785           JUNCTION      0.15    89.79     0  03:01      0.0054       0.398       0.107
  HS02004777           JUNCTION      0.03    90.24     0  03:01     0.00108       0.397       1.306
  HS02004770           JUNCTION     73.89    90.93     0  03:01       0.324       0.399       0.772
  HS02004480           JUNCTION      0.00   269.27     0  03:01           0        1.27       0.094
  HS02004479           JUNCTION      0.00    42.82     0  03:02           0       0.204       0.352
  HS02004478           JUNCTION      0.00   375.17     0  03:01           0        1.97       0.016
  YS02001745           JUNCTION    297.18   445.28     0  02:46         2.5        2.52       0.092
  YS02001748           JUNCTION      0.04   650.46     0  02:46     0.00162        2.52       0.493
  YS02001751           JUNCTION      0.01   428.24     0  02:40    0.000396        2.49       0.784
  YS02001754           JUNCTION      0.26   309.86     0  03:01     0.00936        2.48       0.986
  YS02001762           JUNCTION      0.00   365.37     0  03:00           0        2.37       0.893
  YS02001765           JUNCTION      0.00   365.61     0  03:00           0        2.37       1.035
  YS02001767           JUNCTION      0.54   365.49     0  03:00      0.0193        2.39       1.513
  YS02001770           JUNCTION    373.02   373.02     0  03:01        2.77        2.78       1.149
  YS02001774           JUNCTION      0.00   134.47     0  03:23           0       0.392       6.879
  YS02001779           JUNCTION      0.01   134.21     0  03:23     0.00018       0.355       4.464
  YS02001882           JUNCTION      0.00    10.78     0  03:56           0      0.0222       8.244
  YS02001884           JUNCTION      0.00    16.36     0  02:40           0      0.0576       9.069
  YS02001759           JUNCTION    359.84   719.38     0  03:00        2.54        4.88       0.472
  YS02001887           JUNCTION    453.35   453.35     0  03:01         2.9        2.93       0.242
  YS02001890           JUNCTION      0.00   453.48     0  03:01           0        2.89       0.270
  YS02001898           JUNCTION      0.00   453.52     0  03:01           0        2.88       0.072
  YS02001901           JUNCTION      0.00   453.49     0  03:01           0        2.88       0.195
  YS02001904           JUNCTION      0.00   453.43     0  03:01           0        2.87       0.177
  YS02001907           JUNCTION      0.00  1028.07     0  03:00           0        6.55       0.340
  YS02001910           JUNCTION      0.00   577.38     0  03:00           0        3.69       0.273
  YS02001915           JUNCTION    263.65   577.28     0  03:00        2.08        3.71       0.123
  YS02001918           JUNCTION      0.00   314.48     0  03:00           0        1.64       0.084
  YS02001619           JUNCTION    257.27   257.27     0  03:01        2.07        2.07       0.462
  YS02001629           JUNCTION      0.00   218.81     0  02:52           0        1.79       1.347
  YS02001641           JUNCTION      0.00   461.60     0  02:52           0        4.18       0.504
  YS02001644           JUNCTION    282.70   801.22     0  03:34        2.41        7.21       0.362
  YS02001652           JUNCTION      0.00   375.31     0  03:01           0        2.16       1.073
  YS02001655           JUNCTION      0.15   414.26     0  02:38     0.00554        2.18       1.009
  YS02001920           JUNCTION      2.87   314.32     0  03:00       0.103        1.64       0.144
  YS02001923           JUNCTION      0.04   318.32     0  03:00     0.00136        1.53       0.021
  YS02001926           JUNCTION      0.05   245.82     0  03:01     0.00188        1.52       0.172
  YS02001929           JUNCTION    129.40   160.96     0  02:59        1.51        1.51       0.025
  YS02001658           JUNCTION      0.00   663.92     0  02:44           0         2.2       0.444
  YS02001661           JUNCTION      0.00   709.23     0  02:58           0         2.9      -0.670
  YS02001664           JUNCTION    327.80   351.29     0  02:58        2.17        2.88       0.090
  YS02001622           JUNCTION      0.00   257.40     0  03:01           0        2.06       1.296
  YS02001633           JUNCTION    287.40   461.75     0  02:52        2.49        4.24       0.763
  YS02001649           JUNCTION      0.00   983.84     0  02:53           0        5.75       0.648
  YS02001757           JUNCTION      0.00  1881.12     0  02:54           0        12.3       0.753
  YS02001895           JUNCTION      0.00   453.53     0  03:01           0        2.88       0.130
  YS02001625           JUNCTION      0.00   257.36     0  03:01           0        2.04       1.915
  YS02163301           JUNCTION      0.00   224.92     0  02:43           0        1.77       1.369
  YS02163601           JUNCTION      0.11   461.81     0  02:52     0.00396         4.2       0.719
  YS02164001           JUNCTION      0.00   461.73     0  02:52           0        4.18       0.474
  YS02001647           JUNCTION      0.00   703.06     0  02:53           0        4.15       0.681
  YSB1154              JUNCTION     25.19    25.19     0  03:01       0.113       0.114       1.271
  YSB6556              JUNCTION      0.00    24.91     0  03:01           0       0.115       1.078
  YSB1174              JUNCTION     19.06    19.06     0  03:01      0.0821      0.0828       1.563
  YSB1171              JUNCTION      0.00    43.19     0  03:01           0       0.203       3.195
  YS02006553           JUNCTION      0.00   697.06     0  02:56           0         6.4       0.226
  YS02006561           JUNCTION      0.00  1062.55     0  02:56           0        9.03       0.005
  YS02006556           JUNCTION      0.00   697.02     0  02:56           0         6.4       0.162
  YS02006558           JUNCTION    392.87  1062.80     0  02:56        2.68        9.06       0.052
  YS02001783           JUNCTION      0.00  1056.99     0  02:56           0        9.03       0.017
  YS02001784           JUNCTION      1.06  1058.14     0  02:56      0.0382        9.07       0.028
  YS02001786           JUNCTION      0.06  1057.99     0  02:56     0.00203        9.07       0.028
  YS02001788           JUNCTION      0.07  1049.13     0  02:56     0.00256        9.07       0.014
  YS02001790           JUNCTION      0.15  1041.23     0  02:55     0.00558        9.07       0.022
  YS02001791           JUNCTION      0.00  1091.34     0  02:55           0        9.07       0.005
  YS02001793           JUNCTION      0.00  1005.41     0  02:53           0        9.07       0.000
  WS02004139           JUNCTION      0.32   290.33     0  00:00      0.0116        9.76       0.281
  WSC                  OUTFALL       0.00   990.43     0  03:08           0        22.8       0.000
  3                    OUTFALL       0.00   597.65     0  00:00           0        8.61       0.000
  4                    OUTFALL       0.00   248.64     0  03:02           0        2.76       0.000
  5                    OUTFALL       0.00     0.00     0  00:00           0           0       0.000 ltr
  JK-storage           STORAGE       0.00   981.13     0  02:57           0        9.22     -22.948
  CC-storage           STORAGE       0.00  1881.27     0  02:54           0        12.1      -0.323
  XR-storage           STORAGE     690.11   690.11     0  03:01        11.4          12      -0.001
  
  
  **********************
  Node Surcharge Summary
  **********************
  
  Surcharging occurs when water rises above the top of the highest conduit.
  ---------------------------------------------------------------------
                                               Max. Height   Min. Depth
                                   Hours       Above Crown    Below Rim
  Node                 Type      Surcharged         Meters       Meters
  ---------------------------------------------------------------------
  WS02004402           JUNCTION        0.12          0.010        1.730
  WS02004403           JUNCTION        0.14          0.012        2.018
  WS02004404           JUNCTION        0.94          0.072        2.708
  WS02004406           JUNCTION        0.61          0.041        2.409
  WS02004405           JUNCTION        0.78          0.058        2.742
  WS02006109           JUNCTION        6.19          0.299        1.521
  WS02006110           JUNCTION        1.27          0.124        1.726
  WS02006112           JUNCTION        1.40          0.220        1.460
  WS02006230           JUNCTION        0.94          0.120        1.450
  WS02006231           JUNCTION        1.18          0.150        1.380
  WS02006232           JUNCTION        6.42          0.284        1.196
  WS02006234           JUNCTION        1.61          0.179        1.061
  WS02006235           JUNCTION        6.01          0.221        1.069
  WS02006238           JUNCTION        6.24          0.237        1.193
  WS02006240           JUNCTION        2.00          0.132        1.258
  WS02006242           JUNCTION        6.17          0.165        0.655
  WS02006243           JUNCTION        1.23          0.063        0.707
  WS02006245           JUNCTION        0.58          0.024        0.826
  WS02006247           JUNCTION        0.73          0.026        0.734
  WS02006239           JUNCTION        3.77          0.163        1.127
  WS02006252           JUNCTION        6.73          0.193        0.907
  WS02006256           JUNCTION        0.01          1.050        0.000
  WS02006228           JUNCTION        6.06          0.365        1.835
  YS02001748           JUNCTION        4.16          1.190        0.000
  YS02001751           JUNCTION        5.85          1.200        0.000
  YS02001754           JUNCTION        7.44          1.150        0.000
  YS02001762           JUNCTION        7.80          1.107        0.043
  YS02001765           JUNCTION        7.77          1.046        0.054
  YS02001767           JUNCTION        7.64          1.004        0.026
  YS02001770           JUNCTION        7.57          0.920        0.000
  YS02001774           JUNCTION        7.79          1.025        0.025
  YS02001779           JUNCTION        7.17          0.680        0.000
  YS02001882           JUNCTION        0.72          0.705        0.125
  YS02001884           JUNCTION        0.76          0.730        0.140
  YS02001759           JUNCTION        7.83          1.135        0.075
  YS02001887           JUNCTION        0.87          0.786        0.164
  YS02001890           JUNCTION        0.91          0.760        0.000
  YS02001898           JUNCTION        0.66          0.544        0.196
  YS02001901           JUNCTION        0.82          0.685        0.185
  YS02001904           JUNCTION        0.79          0.643        0.207
  YS02001907           JUNCTION        1.48          0.950        0.000
  YS02001910           JUNCTION        0.96          0.814        0.286
  YS02001915           JUNCTION        0.70          0.650        0.350
  YS02001918           JUNCTION        0.41          0.392        0.418
  YS02001619           JUNCTION        5.20          0.610        0.000
  YS02001629           JUNCTION        5.21          0.470        0.000
  YS02001641           JUNCTION        7.78          0.948        0.152
  YS02001644           JUNCTION        7.78          0.920        0.000
  YS02001652           JUNCTION        7.48          1.130        0.000
  YS02001655           JUNCTION        6.21          1.200        0.000
  YS02001920           JUNCTION        0.45          0.496        0.644
  YS02001923           JUNCTION        0.01          0.070        0.750
  YS02001926           JUNCTION        0.01          0.166        0.734
  YS02001658           JUNCTION        4.20          1.300        0.000
  YS02001661           JUNCTION        0.22          1.390        0.000
  YS02001622           JUNCTION        5.33          0.620        0.000
  YS02001633           JUNCTION        7.77          0.942        0.118
  YS02001649           JUNCTION        7.81          1.050        0.000
  YS02001757           JUNCTION        7.91          1.210        0.000
  YS02001895           JUNCTION        0.67          0.571        0.179
  YS02001625           JUNCTION        7.52          0.780        0.000
  YS02163301           JUNCTION        7.66          0.903        0.127
  YS02163601           JUNCTION        7.81          1.011        0.069
  YS02164001           JUNCTION        7.77          0.938        0.162
  YS02001647           JUNCTION        7.49          0.808        0.092
  YS02006553           JUNCTION        1.54          1.090        0.100
  YS02006561           JUNCTION        0.53          0.948        0.202
  YS02006556           JUNCTION        1.20          1.158        0.192
  YS02006558           JUNCTION        1.16          1.172        0.228
  YS02001783           JUNCTION        1.12          1.105        0.495
  YS02001784           JUNCTION        1.11          1.069        0.421
  YS02001786           JUNCTION        0.96          1.430        0.000
  YS02001788           JUNCTION        0.95          1.395        0.085
  YS02001790           JUNCTION        1.13          1.157        0.000
  YS02001791           JUNCTION        1.17          1.087        0.833
  YS02001793           JUNCTION        1.29          0.857        1.743
  
  
  *********************
  Node Flooding Summary
  *********************
  
  Flooding refers to all water that overflows a node, whether it ponds or not.
  --------------------------------------------------------------------------
                                                             Total   Maximum
                                 Maximum   Time of Max       Flood    Ponded
                        Hours       Rate    Occurrence      Volume     Depth
  Node                 Flooded       LPS   days hr:min    10^6 ltr    Meters
  --------------------------------------------------------------------------
  WS02006256              0.01    406.11      0  00:00       0.001     0.000
  YS02001748              0.01    281.38      0  02:47       0.001     0.000
  YS02001751              0.01    182.98      0  02:44       0.000     0.000
  YS02001754              0.01      5.14      0  02:47       0.000     0.000
  YS02001770              0.01     11.14      0  02:46       0.000     0.000
  YS02001779              1.84    134.19      0  03:23       0.328     0.000
  YS02001890              0.01     14.93      0  02:57       0.000     0.000
  YS02001907              0.28    455.14      0  03:00       0.148     0.000
  YS02001619              0.01     46.22      0  02:44       0.000     0.000
  YS02001629              0.01     35.42      0  02:44       0.000     0.000
  YS02001644              2.96    800.99      0  03:34       3.668     0.000
  YS02001652              0.01     23.64      0  03:08       0.000     0.000
  YS02001655              0.01    181.94      0  02:42       0.000     0.000
  YS02001658              0.01    249.21      0  02:44       0.000     0.000
  YS02001661              0.01    190.16      0  03:08       0.002     0.000
  YS02001622              0.01     26.76      0  02:44       0.000     0.000
  YS02001649              0.09     52.69      0  03:14       0.006     0.000
  YS02001757              0.01     24.38      0  02:47       0.000     0.000
  YS02001625              0.81    165.82      0  03:01       0.215     0.000
  YS02001786              0.01     38.94      0  02:56       0.000     0.000
  YS02001790              0.01     69.96      0  02:56       0.000     0.000
  JK-storage              0.94    365.36      0  03:00       0.864     0.000
  XR-storage              3.25    363.04      0  03:07       1.375     0.000
  
  
  **********************
  Storage Volume Summary
  **********************
  
  --------------------------------------------------------------------------------------------------
                         Average     Avg  Evap Exfil       Maximum     Max    Time of Max    Maximum
                          Volume    Pcnt  Pcnt  Pcnt        Volume    Pcnt     Occurrence    Outflow
  Storage Unit           1000 m3    Full  Loss  Loss       1000 m3    Full    days hr:min        LPS
  --------------------------------------------------------------------------------------------------
  JK-storage               0.068      23     0     0         0.291     100       0  02:57     600.00
  CC-storage               2.662      17     0     0         3.727      24       0  03:40     400.00
  XR-storage               0.769      83     0     0         0.926     100       0  03:07     285.00
  
  
  ***********************
  Outfall Loading Summary
  ***********************
  
  -----------------------------------------------------------
                         Flow       Avg       Max       Total
                         Freq      Flow      Flow      Volume
  Outfall Node           Pcnt       LPS       LPS    10^6 ltr
  -----------------------------------------------------------
  WSC                  100.00    707.07    990.43      22.816
  3                     88.58    353.32    597.65       8.609
  4                     81.57    119.85    248.64       2.763
  5                      0.00      0.00      0.00       0.000
  -----------------------------------------------------------
  System                67.54   1180.24   1771.58      34.188
  
  
  ********************
  Link Flow Summary
  ********************
  
  -----------------------------------------------------------------------------
                                 Maximum  Time of Max   Maximum    Max/    Max/
                                  |Flow|   Occurrence   |Veloc|    Full    Full
  Link                 Type          LPS  days hr:min     m/sec    Flow   Depth
  -----------------------------------------------------------------------------
  WS02003066WSF200     CONDUIT    681.50     0  03:05      2.82    0.12    0.27
  WS02006287WS02006284 CONDUIT    375.44     0  03:02      1.98    0.17    0.29
  WS02006284WS02006280 CONDUIT    375.54     0  03:02      2.22    0.16    0.27
  WS02006280WS02006229 CONDUIT    375.57     0  03:02      3.58    0.08    0.19
  WS02006229WS02006228 CONDUIT    673.47     0  03:02      1.34    2.23    1.00
  WS02006256WS02006235 CONDUIT    177.52     0  00:01      2.73    1.88    1.00
  WS02006253WS02006251 CONDUIT     80.87     0  03:01      0.46    0.24    1.00
  WS02006252WS02006251 CONDUIT    400.36     0  07:08      3.19    1.47    1.00
  WS02006251WS02006249 CONDUIT    480.98     0  03:01      1.26    1.39    0.98
  WS02006249WS02006248 CONDUIT    377.10     0  02:00      1.22    2.07    0.94
  WS02006248WS02006247 CONDUIT    372.04     0  02:00      1.19    0.81    0.97
  WS02006247WS02006245 CONDUIT    364.75     0  02:00      1.16    2.89    1.00
  WS02006245WS02006243 CONDUIT    355.72     0  02:01      1.20    1.05    1.00
  WS02006243WS02006242 CONDUIT    341.55     0  02:01      1.02    0.73    1.00
  WS02006242WS02006240 CONDUIT    332.18     0  09:30      0.91    1.32    1.00
  WS02006240WS02006239 CONDUIT    330.02     0  09:30      0.95    1.04    1.00
  WS02006239WS02006238 CONDUIT    327.70     0  09:30      0.90    1.05    1.00
  WS02006238WS02006235 CONDUIT    325.85     0  09:30      1.32    0.73    1.00
  WS02006235WS02006234 CONDUIT    392.28     0  04:58      1.03    4.14    1.00
  WS02006234WS02006232 CONDUIT    392.28     0  04:58      1.17    0.79    1.00
  WS02006232WS02006231 CONDUIT    392.28     0  04:58      1.06    0.82    1.00
  WS02006231WS02006230 CONDUIT    392.31     0  04:58      1.33    5.95    1.00
  WS02006230WS02006229 CONDUIT    402.63     0  04:59      1.05    8.96    1.00
  WS02006228WS02006109 CONDUIT    673.54     0  03:02      1.34    2.94    1.00
  WS02006116WS02004401 CONDUIT    684.45     0  03:02      0.87    0.94    0.99
  WS02006115WS02006116 CONDUIT    686.55     0  03:02      0.91    0.88    0.92
  WS02006113WS02006111 CONDUIT    706.52     0  03:02      2.59    0.85    0.56
  WS02006112WS02006115 CONDUIT    686.46     0  03:02      0.89    0.41    0.95
  WS02006111WS02006112 CONDUIT    673.79     0  03:02      1.72    0.32    0.74
  WS02006110WS02006113 CONDUIT    674.90     0  03:02      1.53    0.61    0.82
  WS02006109WS02006110 CONDUIT    674.68     0  03:02      1.34    1.30    1.00
  WS02004411WS02004412 CONDUIT    681.69     0  03:04      1.05    0.97    0.77
  WS02004401WS02004402 CONDUIT    682.75     0  03:03      0.87    0.82    1.00
  WS02004413WS02003067 CONDUIT    681.46     0  03:05      1.27    0.29    0.65
  WS02004412WS02004413 CONDUIT    681.58     0  03:05      0.96    0.46    0.85
  WS02004410WS02004411 CONDUIT    681.92     0  03:04      1.05    0.93    0.77
  WS02004409WS02004410 CONDUIT    682.24     0  03:04      1.05    0.88    0.77
  WS02004407WS02004409 CONDUIT    682.80     0  03:04      1.54    0.24    0.55
  WS02004406WS02004407 CONDUIT    683.05     0  03:03      1.23    0.31    0.67
  WS02004405WS02004406 CONDUIT    682.87     0  03:03      0.87    1.35    1.00
  WS02004404WS02004405 CONDUIT    682.92     0  03:03      0.87    6.69    1.00
  WS02004403WS02004404 CONDUIT    682.80     0  03:03      0.87    0.49    1.00
  WS02004402WS02004403 CONDUIT    682.87     0  03:03      0.87    0.98    1.00
  WS02004139WS02001211 CONDUIT    287.03     0  03:16      0.80    0.36    0.55
  WS02004138WS02004139 CONDUIT    290.01     0  00:00      3.34    0.06    0.40
  WS02003067WS02003066 CONDUIT    681.49     0  03:05      1.38    0.22    0.45
  WS02001213WS02003059 CONDUIT    300.32     0  03:15      0.80    0.50    0.76
  WS02001212WS02001213 CONDUIT    297.94     0  03:15      1.19    0.46    0.45
  WS02001211WS02001212 CONDUIT    296.34     0  03:16      0.67    0.23    0.61
  WS02003072WS02003073 CONDUIT    988.66     0  03:07      1.76    2.14    0.50
  WS02003069WS02003072 CONDUIT    988.67     0  03:06      1.65    0.48    0.52
  WS02003060WS02003069 CONDUIT    988.40     0  03:06      1.89    0.39    0.47
  WS02003059WS02003060 CONDUIT    303.43     0  03:14      0.82    0.20    0.67
  HS02004901HS02004770 CONDUIT     17.71     0  03:01      0.07    0.07    0.39
  HS02004876HS02004881 CONDUIT     71.90     0  03:01      0.92    0.76    0.11
  HS02004870HS02004876 CONDUIT     58.03     0  03:01      0.63    0.04    0.13
  HS02004842HS02004848 CONDUIT     11.42     0  03:01      0.05    0.01    0.30
  HS02004837HS02004842 CONDUIT     11.94     0  03:02      0.41    0.01    0.32
  HS02004830HS02004837 CONDUIT     41.69     0  03:01      0.56    0.04    0.11
  HS02004824HS02004830 CONDUIT     41.67     0  03:01      0.58    0.05    0.10
  HS02004817HS02004824 CONDUIT     81.58     0  03:01      0.25    0.04    0.47
  HS02004770HS02004777 CONDUIT     90.21     0  03:01      0.32    0.16    0.41
  HS02004799HS02004480 CONDUIT    226.97     0  03:01      0.78    0.29    0.42
  HS02004792HS02004799 CONDUIT    206.60     0  03:01      0.88    0.13    0.33
  HS02004788HS02004792 CONDUIT    118.94     0  03:01      1.01    0.08    0.17
  HS02004785HS02004788 CONDUIT     89.52     0  03:02      0.66    0.67    0.19
  HS02004777HS02004785 CONDUIT     89.64     0  03:01      0.38    0.11    0.33
  HS02004480HS02004478 CONDUIT    269.12     0  03:01      1.20    1.13    0.32
  HS02004479HS02004480 CONDUIT     44.17     0  03:02      0.23    0.04    0.40
  HS02004862HS02004870 CONDUIT     44.23     0  03:01      0.64    0.05    0.10
  HS02004848HS02004852 CONDUIT     20.44     0  03:01      0.44    0.02    0.07
  HS02004856HS02004862 CONDUIT     30.56     0  03:01      0.47    0.03    0.09
  HS02004852HS02004856 CONDUIT     20.26     0  03:01      0.24    0.02    0.12
  HS02004802HS02004478 CONDUIT    106.59     0  03:02      0.45    0.09    0.35
  HS02004478WS02006287 CONDUIT    375.26     0  03:01      1.68    0.11    0.25
  HS02004817HS02004807 CONDUIT     82.18     0  03:01      0.19    0.05    0.62
  HS02004807HS02004802 CONDUIT    106.49     0  03:01      0.38    0.20    0.40
  YS02001759YS02001757 CONDUIT    719.55     0  03:00      0.92    0.51    1.00
  YS02001762YS02001759 CONDUIT    365.59     0  03:00      0.47    0.42    1.00
  YS02001765YS02001762 CONDUIT    365.37     0  03:00      0.47    0.34    1.00
  YS02001770YS02001767 CONDUIT    364.95     0  03:00      0.46    1.45    1.00
  YS02001774YS02001770 CONDUIT    134.47     0  03:23      0.18    0.09    1.00
  YS02001779YS02001774 CONDUIT    134.20     0  03:23      0.17    0.07    1.00
  YS02001649YS02001757 CONDUIT    983.73     0  02:53      1.25    0.60    1.00
  YS02001767YS02001765 CONDUIT    365.61     0  03:00      0.47    0.46    1.00
  YS02006561YS02001783 CONDUIT   1056.99     0  02:56      2.27    0.55    1.00
  YS02001783YS02001784 CONDUIT   1057.08     0  02:56      2.10    1.46    1.00
  YS02001784YS02001785 CONDUIT   1057.93     0  02:56      2.12    2.46    1.00
  YS02001788YS02001790 CONDUIT   1041.07     0  02:55      2.58    0.77    1.00
  YS02001790YS02001791 CONDUIT   1091.34     0  02:55      3.22    1.19    1.00
  YS02001791YS02001793 CONDUIT   1005.41     0  02:53      6.25    0.43    1.00
  YS02001910YS02001907 CONDUIT    577.38     0  03:00      0.74    0.33    1.00
  YS02001786YS02001788 CONDUIT   1049.06     0  02:56      2.37    2.02    1.00
  YS02001915YS02001910 CONDUIT    577.38     0  03:00      0.74    0.29    1.00
  YS02001918YS02001915 CONDUIT    315.45     0  03:00      0.44    0.17    1.00
  YS02001923YS02001920 CONDUIT    311.45     0  03:00      0.68    0.14    1.00
  YS02001926YS02001923 CONDUIT    318.28     0  03:00      0.79    0.45    1.00
  YS02001929YS02001926 CONDUIT    245.77     0  03:01      0.85    0.12    0.88
  YS02001920YS02001918 CONDUIT    314.48     0  03:00      0.67    0.30    1.00
  YS02001629YS02163301 CONDUIT    224.92     0  02:43      0.29    0.28    1.00
  YS02001619YS02001622 CONDUIT    257.40     0  03:01      0.61    0.38    1.00
  YS02001622YS02001625 CONDUIT    257.36     0  03:01      0.33    0.14    1.00
  YS02001625YS02001629 CONDUIT    218.81     0  02:52      0.28    0.10    1.00
  YS02163301YS02001633 CONDUIT    224.75     0  02:42      0.29    0.21    1.00
  YS02163601YS02164001 CONDUIT    461.73     0  02:52      0.59    0.41    1.00
  YS02164001YS02001641 CONDUIT    461.60     0  02:52      0.59    0.63    1.00
  YS02001641YS02001644 CONDUIT    461.55     0  02:52      0.59    1.49    1.00
  YS02001647YS02001649 CONDUIT    702.93     0  02:53      0.89    0.37    1.00
  YS02006553YS02006556 CONDUIT    697.02     0  02:56      0.89    0.60    1.00
  YS02006556YS02006558 CONDUIT    696.98     0  02:56      0.89    0.55    1.00
  YSB6556YSB1171       CONDUIT     24.81     0  03:03      0.09    0.03    0.67
  YS02001907YS02006553 CONDUIT    697.06     0  02:56      0.77    0.82    1.00
  YS02006558YS02006561 CONDUIT   1062.55     0  02:56      3.76    2.35    1.00
  YS02001633YS02163601 CONDUIT    461.70     0  02:52      0.59    0.48    1.00
  YS02001644YS02001647 CONDUIT    703.06     0  02:53      0.90    0.41    1.00
  YS02001745YS02001748 CONDUIT    650.41     0  02:46      1.48    0.25    0.93
  YS02001748YS02001751 CONDUIT    428.23     0  02:40      1.05    0.22    1.00
  YS02001751YS02001754 CONDUIT    309.60     0  03:01      0.88    0.15    1.00
  YS02001754YS02001757 CONDUIT    309.80     0  03:01      0.39    0.12    1.00
  YS02001882YS02001884 CONDUIT     13.45     0  03:56      0.09    0.02    1.00
  YS02001884YS02001887 CONDUIT     19.56     0  03:50      0.05    0.03    1.00
  YS02001890YS02001895 CONDUIT    453.53     0  03:01      0.58    0.21    1.00
  YS02001895YS02001898 CONDUIT    453.52     0  03:01      0.58    0.79    1.00
  YS02001898YS02001901 CONDUIT    453.49     0  03:01      0.58    0.29    1.00
  YS02001901YS02001904 CONDUIT    453.43     0  03:01      0.58    0.70    1.00
  YS02001904YS02001907 CONDUIT    453.62     0  03:01      0.58    0.16    1.00
  YS02001887YS02001890 CONDUIT    453.48     0  03:01      0.58    0.78    1.00
  YS02001652YS02001649 CONDUIT    375.57     0  03:01      0.50    0.19    1.00
  YS02001655YS02001652 CONDUIT    375.31     0  03:01      0.93    0.18    1.00
  YS02001658YS02001655 CONDUIT    414.10     0  02:38      1.21    0.18    1.00
  YS02001661YS02001658 CONDUIT    663.92     0  02:44      1.56    0.26    1.00
  YS02001664YS02001661 CONDUIT    709.23     0  02:58      1.63    0.22    0.70
  YSB1154YSB6556       CONDUIT     24.91     0  03:01      0.19    0.04    0.56
  YSB1174YSB1171       CONDUIT     18.78     0  03:01      0.07    0.03    0.68
  YSB1171HS02004479    CONDUIT     42.82     0  03:02      0.54    0.03    0.53
  HS02004881HS02006253 CONDUIT     79.15     0  03:01      1.60    0.02    0.32
  YS02001793JiankangQianchi CONDUIT    981.13     0  02:57     16.39    0.08    1.00
  YS02001757CaochengTiaoxuchi CONDUIT   1881.27     0  02:54      2.61    0.83    1.00
  WSF200WS02003060     CONDUIT    681.61     0  03:05      1.79    0.15    0.37
  1                    CONDUIT    990.43     0  03:08      3.32    0.34    0.41
  2                    CONDUIT    248.64     0  03:02      6.16    0.60    0.56
  3                    CONDUIT    597.65     0  00:00     10.05    0.95    0.86
  4                    CONDUIT      0.00     0  00:00      0.00    0.00    0.00
  CC-Pump-1            PUMP       200.00     0  01:59              1.00
  CC-Pump-2            PUMP       200.00     0  01:59              1.00
  JK-Pump-1            PUMP       300.00     0  00:00              1.00
  JK-Pump-2            PUMP       300.00     0  00:00              1.00
  XR-Pump-1            PUMP        95.00     0  00:00              1.00
  XR-Pump-2            PUMP        95.00     0  00:00              1.00
  XR-Pump-3            PUMP        95.00     0  08:10              1.00
  XR-Pump-4            PUMP        95.00     0  00:00              1.00
  
  
  ***************************
  Flow Classification Summary
  ***************************
  
  -------------------------------------------------------------------------------------
                      Adjusted    ---------- Fraction of Time in Flow Class ---------- 
                       /Actual         Up    Down  Sub   Sup   Up    Down  Norm  Inlet 
  Conduit               Length    Dry  Dry   Dry   Crit  Crit  Crit  Crit  Ltd   Ctrl  
  -------------------------------------------------------------------------------------
  WS02003066WSF200        1.00   0.05  0.00  0.00  0.00  0.95  0.00  0.00  0.65  0.00
  WS02006287WS02006284    1.00   0.02  0.01  0.00  0.66  0.31  0.00  0.00  0.73  0.00
  WS02006284WS02006280    1.00   0.03  0.00  0.00  0.00  0.00  0.00  0.97  0.00  0.00
  WS02006280WS02006229    1.00   0.03  0.00  0.00  0.00  0.00  0.00  0.97  0.00  0.00
  WS02006229WS02006228    1.00   0.00  0.00  0.00  0.99  0.00  0.00  0.01  0.00  0.00
  WS02006256WS02006235    1.00   0.00  0.00  0.00  1.00  0.00  0.00  0.00  0.00  0.00
  WS02006253WS02006251    1.00   0.02  0.01  0.00  0.97  0.00  0.00  0.00  0.00  0.00
  WS02006252WS02006251    1.00   0.05  0.00  0.00  0.00  0.00  0.95  0.00  0.00  0.00
  WS02006251WS02006249    1.00   0.00  0.00  0.00  1.00  0.00  0.00  0.00  0.19  0.00
  WS02006249WS02006248    1.00   0.00  0.01  0.00  0.94  0.00  0.05  0.00  0.00  0.00
  WS02006248WS02006247    1.00   0.01  0.00  0.00  0.98  0.00  0.00  0.01  0.10  0.00
  WS02006247WS02006245    1.00   0.01  0.00  0.00  0.97  0.00  0.00  0.01  0.00  0.00
  WS02006245WS02006243    1.00   0.01  0.00  0.00  0.96  0.00  0.00  0.02  0.01  0.00
  WS02006243WS02006242    1.00   0.01  0.00  0.00  0.99  0.00  0.00  0.00  0.16  0.00
  WS02006242WS02006240    1.00   0.00  0.00  0.00  1.00  0.00  0.00  0.00  0.00  0.00
  WS02006240WS02006239    1.00   0.00  0.00  0.00  0.97  0.00  0.00  0.02  0.01  0.00
  WS02006239WS02006238    1.00   0.00  0.00  0.00  1.00  0.00  0.00  0.00  0.00  0.00
  WS02006238WS02006235    1.00   0.00  0.00  0.00  1.00  0.00  0.00  0.00  0.00  0.00
  WS02006235WS02006234    1.00   0.00  0.00  0.00  0.97  0.00  0.03  0.00  0.00  0.00
  WS02006234WS02006232    1.00   0.00  0.00  0.00  1.00  0.00  0.00  0.00  0.00  0.00
  WS02006232WS02006231    1.00   0.00  0.00  0.00  0.99  0.00  0.00  0.00  0.00  0.00
  WS02006231WS02006230    1.00   0.00  0.00  0.00  0.85  0.00  0.15  0.00  0.00  0.00
  WS02006230WS02006229    1.00   0.00  0.00  0.00  0.99  0.00  0.00  0.01  0.01  0.00
  WS02006228WS02006109    1.00   0.00  0.00  0.00  1.00  0.00  0.00  0.00  0.00  0.00
  WS02006116WS02004401    1.00   0.01  0.00  0.00  0.99  0.00  0.00  0.00  0.00  0.00
  WS02006115WS02006116    1.00   0.01  0.00  0.00  0.98  0.00  0.00  0.01  0.00  0.00
  WS02006113WS02006111    1.00   0.01  0.00  0.00  0.00  0.99  0.00  0.00  0.10  0.00
  WS02006112WS02006115    1.00   0.01  0.00  0.00  0.99  0.00  0.00  0.00  0.00  0.00
  WS02006111WS02006112    1.00   0.01  0.00  0.00  0.99  0.00  0.00  0.00  0.91  0.00
  WS02006110WS02006113    1.00   0.01  0.00  0.00  0.99  0.00  0.00  0.00  0.00  0.00
  WS02006109WS02006110    1.00   0.00  0.01  0.00  0.99  0.00  0.00  0.00  0.00  0.00
  WS02004411WS02004412    1.00   0.03  0.00  0.00  0.97  0.00  0.00  0.00  0.00  0.00
  WS02004401WS02004402    1.00   0.01  0.00  0.00  0.99  0.00  0.00  0.00  0.00  0.00
  WS02004413WS02003067    1.00   0.03  0.01  0.00  0.00  0.00  0.96  0.00  0.00  0.00
  WS02004412WS02004413    1.00   0.03  0.00  0.00  0.97  0.00  0.00  0.00  0.01  0.00
  WS02004410WS02004411    1.00   0.03  0.00  0.00  0.97  0.00  0.00  0.00  0.00  0.00
  WS02004409WS02004410    1.00   0.03  0.00  0.00  0.97  0.00  0.00  0.00  0.00  0.00
  WS02004407WS02004409    1.00   0.03  0.00  0.00  0.97  0.00  0.00  0.00  0.84  0.00
  WS02004406WS02004407    1.00   0.00  0.03  0.00  0.97  0.00  0.00  0.00  0.00  0.00
  WS02004405WS02004406    1.00   0.00  0.00  0.00  1.00  0.00  0.00  0.00  0.01  0.00
  WS02004404WS02004405    1.00   0.00  0.00  0.00  1.00  0.00  0.00  0.00  0.00  0.00
  WS02004403WS02004404    1.00   0.00  0.01  0.00  0.99  0.00  0.00  0.00  0.02  0.00
  WS02004402WS02004403    1.00   0.01  0.00  0.00  0.99  0.00  0.00  0.00  0.00  0.00
  WS02004139WS02001211    1.00   0.00  0.00  0.00  1.00  0.00  0.00  0.00  0.00  0.00
  WS02004138WS02004139    1.00   0.00  0.00  0.00  0.99  0.01  0.00  0.00  1.00  0.00
  WS02003067WS02003066    1.00   0.04  0.00  0.00  0.95  0.00  0.00  0.00  0.00  0.00
  WS02001213WS02003059    1.00   0.00  0.00  0.00  0.99  0.00  0.00  0.00  0.00  0.00
  WS02001212WS02001213    1.00   0.00  0.00  0.00  0.92  0.00  0.08  0.00  0.00  0.00
  WS02001211WS02001212    1.00   0.00  0.00  0.00  1.00  0.00  0.00  0.00  0.00  0.00
  WS02003072WS02003073    1.00   0.00  0.00  0.00  0.00  0.00  0.00  1.00  0.00  0.00
  WS02003069WS02003072    1.00   0.00  0.00  0.00  0.99  0.01  0.00  0.00  0.18  0.00
  WS02003060WS02003069    1.00   0.00  0.00  0.00  0.99  0.01  0.00  0.00  0.01  0.00
  WS02003059WS02003060    1.00   0.00  0.00  0.00  1.00  0.00  0.00  0.00  0.01  0.00
  HS02004901HS02004770    1.00   0.02  0.00  0.00  0.97  0.00  0.00  0.00  0.00  0.00
  HS02004876HS02004881    1.00   0.01  0.00  0.00  0.92  0.07  0.00  0.00  0.00  0.00
  HS02004870HS02004876    1.00   0.01  0.00  0.00  0.99  0.00  0.00  0.00  0.96  0.00
  HS02004842HS02004848    1.00   0.00  0.02  0.00  0.97  0.00  0.00  0.00  0.67  0.00
  HS02004837HS02004842    1.00   0.00  0.00  0.00  0.99  0.01  0.00  0.00  0.08  0.00
  HS02004830HS02004837    1.00   0.00  0.00  0.00  1.00  0.00  0.00  0.00  0.99  0.00
  HS02004824HS02004830    1.00   0.00  0.00  0.00  1.00  0.00  0.00  0.00  0.00  0.00
  HS02004817HS02004824    1.00   0.00  0.00  0.00  1.00  0.00  0.00  0.00  1.00  0.00
  HS02004770HS02004777    1.00   0.00  0.02  0.00  0.97  0.00  0.00  0.00  0.03  0.00
  HS02004799HS02004480    1.00   0.00  0.01  0.00  0.97  0.00  0.02  0.00  0.00  0.00
  HS02004792HS02004799    1.00   0.00  0.00  0.00  0.99  0.01  0.00  0.00  0.99  0.00
  HS02004788HS02004792    1.00   0.00  0.00  0.00  0.99  0.01  0.00  0.00  0.98  0.00
  HS02004785HS02004788    1.00   0.00  0.00  0.00  1.00  0.00  0.00  0.00  0.00  0.00
  HS02004777HS02004785    1.00   0.00  0.00  0.00  1.00  0.00  0.00  0.00  0.11  0.00
  HS02004480HS02004478    1.00   0.03  0.00  0.00  0.72  0.00  0.00  0.26  0.00  0.00
  HS02004479HS02004480    1.00   0.01  0.00  0.00  0.99  0.00  0.00  0.00  0.10  0.00
  HS02004862HS02004870    1.00   0.00  0.00  0.00  1.00  0.00  0.00  0.00  0.04  0.00
  HS02004848HS02004852    1.00   0.03  0.00  0.00  0.97  0.00  0.00  0.00  0.70  0.00
  HS02004856HS02004862    1.00   0.00  0.03  0.00  0.97  0.00  0.00  0.00  0.85  0.00
  HS02004852HS02004856    1.00   0.03  0.00  0.00  0.97  0.00  0.00  0.00  0.89  0.00
  HS02004802HS02004478    1.00   0.03  0.00  0.00  0.97  0.00  0.00  0.00  0.02  0.00
  HS02004478WS02006287    1.00   0.03  0.00  0.00  0.77  0.20  0.00  0.00  0.73  0.00
  HS02004817HS02004807    1.00   0.00  0.03  0.00  0.97  0.00  0.00  0.00  0.01  0.00
  HS02004807HS02004802    1.00   0.03  0.00  0.00  0.97  0.00  0.00  0.00  0.00  0.00
  YS02001759YS02001757    1.00   0.00  0.00  0.00  1.00  0.00  0.00  0.00  0.13  0.00
  YS02001762YS02001759    1.00   0.00  0.00  0.00  1.00  0.00  0.00  0.00  0.03  0.00
  YS02001765YS02001762    1.00   0.00  0.00  0.00  1.00  0.00  0.00  0.00  0.13  0.00
  YS02001770YS02001767    1.00   0.00  0.00  0.00  1.00  0.00  0.00  0.00  0.00  0.00
  YS02001774YS02001770    1.00   0.00  0.02  0.00  0.97  0.00  0.00  0.00  0.03  0.00
  YS02001779YS02001774    1.00   0.00  0.00  0.00  1.00  0.00  0.00  0.00  0.16  0.00
  YS02001649YS02001757    1.00   0.00  0.00  0.00  1.00  0.00  0.00  0.00  0.13  0.00
  YS02001767YS02001765    1.00   0.00  0.00  0.00  1.00  0.00  0.00  0.00  0.00  0.00
  YS02006561YS02001783    1.00   0.03  0.00  0.00  0.21  0.76  0.00  0.00  0.60  0.00
  YS02001783YS02001784    1.00   0.00  0.03  0.00  0.97  0.00  0.00  0.00  0.00  0.00
  YS02001784YS02001785    1.00   0.00  0.00  0.00  1.00  0.00  0.00  0.00  0.15  0.00
  YS02001788YS02001790    1.00   0.00  0.00  0.00  0.21  0.79  0.00  0.00  0.59  0.00
  YS02001790YS02001791    1.00   0.00  0.00  0.00  0.18  0.82  0.00  0.00  0.51  0.00
  YS02001791YS02001793    1.00   0.00  0.00  0.00  0.19  0.81  0.00  0.00  0.01  0.00
  YS02001910YS02001907    1.00   0.00  0.00  0.00  0.99  0.00  0.00  0.01  0.10  0.00
  YS02001786YS02001788    1.00   0.00  0.00  0.00  0.21  0.79  0.00  0.00  0.00  0.00
  YS02001915YS02001910    1.00   0.00  0.00  0.00  1.00  0.00  0.00  0.00  0.14  0.00
  YS02001918YS02001915    1.00   0.00  0.01  0.00  0.99  0.00  0.00  0.00  0.67  0.00
  YS02001923YS02001920    1.00   0.00  0.00  0.00  1.00  0.00  0.00  0.00  0.89  0.00
  YS02001926YS02001923    1.00   0.00  0.02  0.00  0.11  0.00  0.87  0.00  0.00  0.00
  YS02001929YS02001926    1.00   0.00  0.03  0.00  0.97  0.00  0.00  0.00  0.84  0.00
  YS02001920YS02001918    1.00   0.00  0.01  0.00  0.99  0.00  0.00  0.00  0.00  0.00
  YS02001629YS02163301    1.00   0.03  0.00  0.00  0.97  0.00  0.00  0.00  0.00  0.00
  YS02001619YS02001622    1.00   0.02  0.00  0.00  0.98  0.00  0.00  0.00  0.00  0.00
  YS02001622YS02001625    1.00   0.03  0.00  0.00  0.97  0.00  0.00  0.00  0.06  0.00
  YS02001625YS02001629    1.00   0.03  0.01  0.00  0.95  0.00  0.01  0.00  0.00  0.00
  YS02163301YS02001633    1.00   0.00  0.03  0.00  0.97  0.00  0.00  0.00  0.00  0.00
  YS02163601YS02164001    1.00   0.00  0.02  0.00  0.98  0.00  0.00  0.00  0.00  0.00
  YS02164001YS02001641    1.00   0.01  0.01  0.00  0.98  0.00  0.00  0.00  0.05  0.00
  YS02001641YS02001644    1.00   0.00  0.01  0.00  0.99  0.00  0.00  0.00  0.00  0.00
  YS02001647YS02001649    1.00   0.00  0.03  0.00  0.97  0.00  0.00  0.00  0.01  0.00
  YS02006553YS02006556    1.00   0.01  0.00  0.00  0.99  0.00  0.00  0.00  0.02  0.00
  YS02006556YS02006558    1.00   0.00  0.00  0.00  1.00  0.00  0.00  0.00  0.00  0.00
  YSB6556YSB1171          1.00   0.01  0.01  0.00  0.98  0.00  0.00  0.00  0.00  0.00
  YS02001907YS02006553    1.00   0.00  0.01  0.00  0.99  0.00  0.00  0.00  0.00  0.00
  YS02006558YS02006561    1.00   0.03  0.00  0.00  0.12  0.85  0.00  0.00  0.58  0.00
  YS02001633YS02163601    1.00   0.00  0.01  0.00  0.99  0.00  0.00  0.00  0.13  0.00
  YS02001644YS02001647    1.00   0.00  0.03  0.00  0.97  0.00  0.00  0.00  0.00  0.00
  YS02001745YS02001748    1.00   0.00  0.00  0.00  0.92  0.01  0.00  0.07  0.05  0.00
  YS02001748YS02001751    1.00   0.00  0.00  0.00  0.98  0.02  0.00  0.00  0.12  0.00
  YS02001751YS02001754    1.00   0.00  0.00  0.00  0.96  0.00  0.00  0.04  0.02  0.00
  YS02001754YS02001757    1.00   0.00  0.00  0.00  0.99  0.01  0.00  0.00  0.16  0.00
  YS02001882YS02001884    1.00   0.03  0.00  0.00  0.97  0.00  0.00  0.00  0.00  0.00
  YS02001884YS02001887    1.00   0.02  0.01  0.00  0.98  0.00  0.00  0.00  0.00  0.00
  YS02001890YS02001895    1.00   0.00  0.03  0.00  0.97  0.00  0.00  0.00  0.00  0.00
  YS02001895YS02001898    1.00   0.03  0.00  0.00  0.96  0.00  0.01  0.00  0.00  0.00
  YS02001898YS02001901    1.00   0.03  0.00  0.00  0.97  0.00  0.00  0.00  0.02  0.00
  YS02001901YS02001904    1.00   0.03  0.00  0.00  0.97  0.00  0.00  0.00  0.00  0.00
  YS02001904YS02001907    1.00   0.00  0.03  0.00  0.97  0.00  0.00  0.00  0.00  0.00
  YS02001887YS02001890    1.00   0.00  0.00  0.00  0.99  0.00  0.01  0.00  0.00  0.00
  YS02001652YS02001649    1.00   0.00  0.00  0.00  1.00  0.00  0.00  0.00  0.14  0.00
  YS02001655YS02001652    1.00   0.00  0.00  0.00  0.96  0.00  0.00  0.04  0.02  0.00
  YS02001658YS02001655    1.00   0.00  0.03  0.00  0.95  0.02  0.00  0.00  0.09  0.00
  YS02001661YS02001658    1.00   0.03  0.00  0.00  0.92  0.06  0.00  0.00  0.06  0.00
  YS02001664YS02001661    1.00   0.02  0.00  0.00  0.88  0.10  0.00  0.00  0.41  0.00
  YSB1154YSB6556          1.00   0.02  0.00  0.00  0.98  0.00  0.00  0.00  0.01  0.00
  YSB1174YSB1171          1.00   0.02  0.01  0.00  0.98  0.00  0.00  0.00  0.00  0.00
  YSB1171HS02004479       1.00   0.01  0.00  0.00  0.98  0.00  0.00  0.00  0.09  0.00
  HS02004881HS02006253    1.00   0.02  0.00  0.00  0.92  0.00  0.00  0.06  0.76  0.00
  YS02001793JiankangQianchi    1.00   0.00  0.00  0.00  0.31  0.68  0.00  0.00  0.12  0.00
  YS02001757CaochengTiaoxuchi    1.00   0.00  0.05  0.00  0.90  0.06  0.00  0.00  0.00  0.00
  WSF200WS02003060        1.00   0.00  0.05  0.00  0.90  0.06  0.00  0.00  0.08  0.00
  1                       1.00   0.00  0.00  0.00  0.00  1.00  0.00  0.00  0.16  0.00
  2                       1.00   0.18  0.00  0.00  0.00  0.82  0.00  0.00  0.03  0.00
  3                       1.00   0.11  0.00  0.00  0.00  0.89  0.00  0.00  0.03  0.00
  4                       1.00   1.00  0.00  0.00  0.00  0.00  0.00  0.00  0.00  0.00
  
  
  *************************
  Conduit Surcharge Summary
  *************************
  
  ----------------------------------------------------------------------------
                                                           Hours        Hours 
                         --------- Hours Full --------   Above Full   Capacity
  Conduit                Both Ends  Upstream  Dnstream   Normal Flow   Limited
  ----------------------------------------------------------------------------
  WS02006229WS02006228        6.06      6.28      6.06      7.47         6.06
  WS02006256WS02006235        8.21      8.21     10.00      1.66         0.01
  WS02006253WS02006251        0.23      0.23      1.08      0.01         0.01
  WS02006252WS02006251        6.38      6.38      6.73      6.64         0.01
  WS02006251WS02006249        0.01      0.44      0.01      6.36         0.01
  WS02006249WS02006248        0.01      0.01      0.01      7.43         0.01
  WS02006248WS02006247        0.01      0.01      0.73      0.01         0.01
  WS02006247WS02006245        0.58      1.04      0.58      7.58         0.58
  WS02006245WS02006243        0.88      0.88      1.23      0.04         0.01
  WS02006243WS02006242        1.31      1.31      6.17      0.01         0.01
  WS02006242WS02006240        2.00      2.00      6.31      6.10         0.01
  WS02006240WS02006239        3.34      3.34      3.77      0.04         0.01
  WS02006239WS02006238        6.23      6.23      6.24      0.24         0.16
  WS02006238WS02006235        6.13      6.13      6.40      0.01         0.01
  WS02006235WS02006234        1.61      1.61      6.01      8.19         0.01
  WS02006234WS02006232        3.24      3.24      6.42      0.01         0.01
  WS02006232WS02006231        1.18      1.18      6.42      0.01         0.01
  WS02006231WS02006230        0.94      0.94      1.21      8.22         0.01
  WS02006230WS02006229        6.68      7.19      6.68      8.29         6.68
  WS02006228WS02006109        6.19      6.52      6.19      7.71         6.19
  WS02006112WS02006115        0.01      0.01      1.40      0.01         0.01
  WS02006111WS02006112        0.01      0.01      7.47      0.01         0.01
  WS02006110WS02006113        0.01      0.01      6.40      0.01         0.01
  WS02006109WS02006110        1.27      1.27      6.52      1.27         0.01
  WS02004401WS02004402        0.01      0.01      0.12      0.01         0.01
  WS02004406WS02004407        0.01      0.01      0.61      0.01         0.01
  WS02004405WS02004406        0.61      0.78      0.61      1.32         0.61
  WS02004404WS02004405        0.78      0.94      0.78      8.17         0.78
  WS02004403WS02004404        0.14      0.14      0.94      0.01         0.01
  WS02004402WS02004403        0.12      0.12      0.14      0.01         0.01
  WS02003072WS02003073        0.01      0.01      0.01      7.79         0.01
  HS02004480HS02004478        0.01      0.01      0.01      0.25         0.01
  YS02001759YS02001757        7.83      7.83      7.91      0.01         0.01
  YS02001762YS02001759        7.80      7.80      7.83      0.01         0.01
  YS02001765YS02001762        7.77      7.77      7.80      0.01         0.01
  YS02001770YS02001767        7.61      7.62      7.64      0.46         1.05
  YS02001774YS02001770        7.57      7.57      7.79      0.01         0.01
  YS02001779YS02001774        7.17      7.17      7.79      0.01         0.01
  YS02001649YS02001757        7.81      7.81      7.91      0.01         0.01
  YS02001767YS02001765        7.64      7.64      7.77      0.01         0.01
  YS02006561YS02001783        0.53      0.53      1.12      0.01         0.01
  YS02001783YS02001784        1.08      1.12      1.11      1.15         0.90
  YS02001784YS02001785        0.96      1.11      0.96      2.07         0.96
  YS02001788YS02001790        0.95      0.95      1.13      0.01         0.01
  YS02001790YS02001791        1.13      1.13      1.17      0.49         0.39
  YS02001791YS02001793        1.17      1.17      1.33      0.01         0.01
  YS02001910YS02001907        0.96      0.96      1.48      0.01         0.01
  YS02001786YS02001788        0.95      0.96      0.95      1.72         0.95
  YS02001915YS02001910        0.70      0.70      0.96      0.01         0.01
  YS02001918YS02001915        0.41      0.41      0.70      0.01         0.01
  YS02001923YS02001920        0.17      0.17      0.45      0.01         0.01
  YS02001926YS02001923        0.01      0.01      0.01      0.01         0.01
  YS02001929YS02001926        0.01      0.01      0.01      0.01         0.01
  YS02001920YS02001918        0.41      0.41      0.45      0.01         0.01
  YS02001629YS02163301        7.57      7.57      7.66      0.01         0.01
  YS02001619YS02001622        5.20      5.20      5.33      0.01         0.01
  YS02001622YS02001625        5.33      5.33      7.52      0.01         0.01
  YS02001625YS02001629        5.21      5.21      7.52      0.01         0.01
  YS02163301YS02001633        7.66      7.66      7.77      0.01         0.01
  YS02163601YS02164001        7.77      7.77      7.81      0.01         0.01
  YS02164001YS02001641        7.77      7.77      7.78      0.01         0.02
  YS02001641YS02001644        7.78      7.78      7.78      1.20         1.52
  YS02001647YS02001649        7.49      7.49      7.81      0.01         0.01
  YS02006553YS02006556        1.20      1.20      1.54      0.01         0.01
  YS02006556YS02006558        1.36      1.36      1.62      0.01         0.01
  YS02001907YS02006553        2.09      2.09      2.30      0.01         0.01
  YS02006558YS02006561        0.69      1.16      0.69      1.94         0.69
  YS02001633YS02163601        7.77      7.77      7.81      0.01         0.01
  YS02001644YS02001647        7.49      7.49      7.78      0.01         0.01
  YS02001745YS02001748        0.01      0.01      4.16      0.01         0.01
  YS02001748YS02001751        4.55      4.55      5.85      0.01         0.01
  YS02001751YS02001754        5.85      5.85      7.44      0.01         0.01
  YS02001754YS02001757        7.48      7.48      7.91      0.01         0.01
  YS02001882YS02001884        0.72      0.72      0.76      0.01         0.01
  YS02001884YS02001887        0.83      0.83      0.87      0.01         0.01
  YS02001890YS02001895        0.67      0.67      0.98      0.01         0.01
  YS02001895YS02001898        0.66      0.66      0.67      0.01         0.01
  YS02001898YS02001901        0.68      0.68      0.82      0.01         0.01
  YS02001901YS02001904        0.79      0.79      0.82      0.01         0.01
  YS02001904YS02001907        0.79      0.79      1.57      0.01         0.01
  YS02001887YS02001890        0.91      0.91      0.94      0.01         0.01
  YS02001652YS02001649        7.50      7.50      7.81      0.01         0.01
  YS02001655YS02001652        6.21      6.21      7.48      0.01         0.01
  YS02001658YS02001655        4.20      4.20      6.21      0.01         0.01
  YS02001661YS02001658        0.20      0.20      4.20      0.01         0.01
  YS02001664YS02001661        0.01      0.01      0.90      0.01         0.01
  YS02001793JiankangQianchi        1.29      1.29      2.02      0.01         0.01
  YS02001757CaochengTiaoxuchi        4.57      4.57      7.91      0.01         0.01
  3                           0.01      0.01      0.01      0.01         0.01
  
  
  ***************
  Pumping Summary
  ***************
  
  ---------------------------------------------------------------------------------------------------------
                                                  Min       Avg       Max     Total     Power    % Time Off
                        Percent   Number of      Flow      Flow      Flow    Volume     Usage    Pump Curve
  Pump                 Utilized   Start-Ups       LPS       LPS       LPS  10^6 ltr     Kw-hr    Low   High
  ---------------------------------------------------------------------------------------------------------
  CC-Pump-1               74.39           2      0.00    184.69    200.00     4.901     10.36    0.0    9.7
  CC-Pump-2               79.39           3      0.00    189.71    200.00     5.321     11.27    0.0    9.1
  JK-Pump-1               91.66           3      0.00    214.81    300.00     5.541     81.82    0.0    0.0
  JK-Pump-2               95.00           3      0.00    206.66    300.00     5.558     82.29    0.0    0.0
  XR-Pump-1               98.33           2      0.00     88.07     95.00     3.106     30.42    0.0    0.0
  XR-Pump-2               98.33           3      0.00     91.20     95.00     3.221     31.41    0.0    0.0
  XR-Pump-3               13.34           2      0.00     59.49     95.00     0.285      2.33    0.0    0.0
  XR-Pump-4               96.67           2      0.00     90.82     95.00     3.135     30.65    0.0    0.0
  

  Analysis begun on:  Fri Dec 17 20:16:04 2021
  Analysis ended on:  Fri Dec 17 20:16:08 2021
  Total elapsed time: 00:00:04