
  EPA STORM WATER MANAGEMENT MODEL - VERSION 5.1 (Build 5.3.0.dev0)
  --------------------------------------------------------------

  WARNING 04: minimum elevation drop used for Conduit WS02004404WS02004405
  WARNING 03: negative offset ignored for Link YS02001904YS02001907
  
  *********************************************************
  NOTE: The summary statistics displayed in this report are
  based on results found at every computational time step,  
  not just on results from each reporting time step.
  *********************************************************
  
  ****************
  Analysis Options
  ****************
  Flow Units ............... LPS
  Process Models:
    Rainfall/Runoff ........ YES
    RDII ................... NO
    Snowmelt ............... NO
    Groundwater ............ NO
    Flow Routing ........... YES
    Ponding Allowed ........ NO
    Water Quality .......... NO
  Infiltration Method ...... HORTON
  Flow Routing Method ...... DYNWAVE
  Surcharge Method ......... EXTRAN
  Starting Date ............ 08/28/2015 08:00:00
  Ending Date .............. 08/28/2015 15:50:00
  Antecedent Dry Days ...... 8.0
  Report Time Step ......... 00:01:00
  Wet Time Step ............ 00:01:00
  Dry Time Step ............ 00:01:00
  Routing Time Step ........ 5.00 sec
  Variable Time Step ....... YES
  Maximum Trials ........... 8
  Number of Threads ........ 4
  Head Tolerance ........... 0.001500 m
  
  
  **************************        Volume         Depth
  Runoff Quantity Continuity     hectare-m            mm
  **************************     ---------       -------
  Total Precipitation ......         5.556        12.164
  Evaporation Loss .........         0.000         0.000
  Infiltration Loss ........         1.427         3.124
  Surface Runoff ...........         3.072         6.726
  Final Storage ............         1.058         2.316
  Continuity Error (%) .....        -0.016
  
  
  **************************        Volume        Volume
  Flow Routing Continuity        hectare-m      10^6 ltr
  **************************     ---------     ---------
  Dry Weather Inflow .......         0.616         6.165
  Wet Weather Inflow .......         3.071        30.709
  Groundwater Inflow .......         0.000         0.000
  RDII Inflow ..............         0.000         0.000
  External Inflow ..........         0.102         1.024
  External Outflow .........         1.897        18.970
  Flooding Loss ............         1.401        14.014
  Evaporation Loss .........         0.000         0.000
  Exfiltration Loss ........         0.000         0.000
  Initial Stored Volume ....         0.076         0.761
  Final Stored Volume ......         0.582         5.821
  Continuity Error (%) .....        -0.381
  
  
  *************************
  Highest Continuity Errors
  *************************
  Node HS02004842 (16.24%)
  Node YS02001884 (11.60%)
  Node YS02001774 (6.24%)
  Node WS02006256 (6.10%)
  Node YSB1171 (3.12%)
  
  
  ***************************
  Time-Step Critical Elements
  ***************************
  Link 2 (72.22%)
  Link WS02006238WS02006235 (5.46%)
  Link WS02004404WS02004405 (4.22%)
  Link WS02006280WS02006229 (3.66%)
  Link YS02006556YS02006558 (2.01%)
  
  
  ********************************
  Highest Flow Instability Indexes
  ********************************
  Link WS02006252WS02006251 (60)
  Link WS02006113WS02006111 (56)
  Link WS02006111WS02006112 (53)
  Link YS02001791YS02001793 (45)
  Link YS02163601YS02164001 (43)
  
  
  *************************
  Routing Time Step Summary
  *************************
  Minimum Time Step           :     0.50 sec
  Average Time Step           :     1.57 sec
  Maximum Time Step           :     5.00 sec
  Percent in Steady State     :     0.00
  Average Iterations per Step :     5.00
  Percent Not Converging      :    34.57
  
  
  ***************************
  Subcatchment Runoff Summary
  ***************************
  
  ------------------------------------------------------------------------------------------------------------------------------
                            Total      Total      Total      Total     Imperv       Perv      Total       Total     Peak  Runoff
                           Precip      Runon       Evap      Infil     Runoff     Runoff     Runoff      Runoff   Runoff   Coeff
  Subcatchment                 mm         mm         mm         mm         mm         mm         mm    10^6 ltr      LPS
  ------------------------------------------------------------------------------------------------------------------------------
  sub0                      12.16       0.00       0.00       0.85      10.05       0.00      10.05        0.01     1.91   0.826
  sub1                      12.16       0.00       0.00       1.34       9.56       0.00       9.56        0.06    14.15   0.786
  sub2                      12.16       0.00       0.00       4.50       6.75       0.00       6.75        0.06    13.75   0.555
  sub3                      12.16       0.00       0.00       4.50       6.71       0.00       6.71        0.15    32.07   0.552
  sub4                      12.16       0.00       0.00       1.34       9.40       0.00       9.40        0.20    40.20   0.773
  sub5                      12.16       0.00       0.00       0.85       9.99       0.00       9.99        0.11    25.19   0.822
  sub7                      12.16       0.00       0.00       1.09       9.81       0.00       9.81        0.03     7.55   0.807
  sub8                      12.16       0.00       0.00       1.09       9.80       0.00       9.80        0.06    14.17   0.806
  sub9                      12.16       0.00       0.00       1.09       9.80       0.00       9.80        0.05    10.64   0.806
  sub10                     12.16       0.00       0.00       0.97       9.89       0.00       9.89        0.11    24.40   0.813
  sub11                     12.16       0.00       0.00       0.97       9.91       0.00       9.91        0.12    26.15   0.815
  sub12                     12.16       0.00       0.00       1.58       9.39       0.00       9.39        0.08    19.06   0.772
  sub14                     12.16       0.00       0.00       1.09       9.80       0.00       9.80        0.09    21.02   0.805
  sub15                     12.16       0.00       0.00       3.65       7.53       0.00       7.53        0.13    29.11   0.619
  sub16                     12.16       0.00       0.00       4.01       7.23       0.00       7.23        0.08    17.47   0.594
  sub17                     12.16       0.00       0.00       3.89       7.34       0.00       7.34        0.06    14.47   0.603
  sub22                     12.16       0.00       0.00       5.23       6.14       0.00       6.14        0.39    88.27   0.505
  sub23                     12.16       0.00       0.00       4.50       6.79       0.00       6.79        0.32    73.89   0.558
  sub60                     12.16       0.00       0.00       1.46       7.71       0.00       7.71        2.34   297.17   0.634
  sub61                     12.16       0.00       0.00       2.07       7.87       0.00       7.87        2.43   359.80   0.647
  sub62                     12.16       0.00       0.00       0.97       8.55       0.00       8.55        2.63   372.87   0.703
  sub63                     12.16       0.00       0.00       3.53       6.89       0.00       6.89        2.09   327.80   0.567
  sub64                     12.16       0.00       0.00       1.82       7.40       0.00       7.40        2.25   282.66   0.608
  sub65                     12.16       0.00       0.00       1.58       7.52       0.00       7.52        2.31   287.20   0.618
  sub66                     12.16       0.00       0.00       3.53       6.36       0.00       6.36        1.95   257.27   0.523
  sub67                     12.16       0.00       0.00       0.97       9.05       0.00       9.05        2.79   452.90   0.744
  sub68                     12.16       0.00       0.00       1.70       8.28       0.00       8.28        2.55   391.99   0.681
  sub69                     12.16       0.00       0.00       1.82       8.61       0.00       8.61        2.01   355.79   0.708
  sub70                     12.16       8.79       0.00       7.03      11.43       0.10      11.53        2.64   335.00   0.550
  sub71                     12.16       0.00       0.00       0.97       8.31       0.00       8.31        1.96   263.63   0.683
  sub72                     12.16       0.00       0.00       0.85       6.56       0.00       6.56        1.34   129.40   0.540
  sub73                     12.16      11.23       0.00       7.88      12.47       0.08      12.54        2.95   300.52   0.536
  sub74                     12.16       0.00       0.00       9.12       2.57       0.00       2.57        1.03   189.59   0.211
  
  
  ******************
  Node Depth Summary
  ******************
  
  ---------------------------------------------------------------------------------
                                 Average  Maximum  Maximum  Time of Max    Reported
                                   Depth    Depth      HGL   Occurrence   Max Depth
  Node                 Type       Meters   Meters   Meters  days hr:min      Meters
  ---------------------------------------------------------------------------------
  WS02001211           JUNCTION     0.71     0.74     5.57     0  03:09        0.74
  WS02001212           JUNCTION     0.43     0.47     5.53     0  03:08        0.47
  WS02001213           JUNCTION     0.67     0.73     5.49     0  03:07        0.73
  WS02003069           JUNCTION     0.48     0.59     5.17     0  03:07        0.59
  WS02003072           JUNCTION     0.54     0.65     5.02     0  03:07        0.65
  WS02003073           JUNCTION     0.33     0.40     4.46     0  03:08        0.40
  WS02003060           JUNCTION     0.43     0.52     5.45     0  03:06        0.52
  WS02003066           JUNCTION     0.24     0.32     5.88     0  03:05        0.32
  WS02003059           JUNCTION     0.72     0.79     5.48     0  03:07        0.79
  WS02003067           JUNCTION     0.58     0.74     6.06     0  03:05        0.74
  WS02004401           JUNCTION     0.70     0.95     6.95     0  03:03        0.95
  WS02004402           JUNCTION     0.73     0.97     6.93     0  03:03        0.97
  WS02004403           JUNCTION     0.75     0.98     6.91     0  03:04        0.98
  WS02004404           JUNCTION     0.82     1.04     6.89     0  03:04        1.04
  WS02004406           JUNCTION     0.82     1.02     6.85     0  03:04        1.02
  WS02004409           JUNCTION     0.52     0.74     6.51     0  03:04        0.74
  WS02004410           JUNCTION     0.54     0.75     6.47     0  03:05        0.75
  WS02004411           JUNCTION     0.55     0.76     6.44     0  03:05        0.75
  WS02004412           JUNCTION     0.56     0.76     6.40     0  03:05        0.75
  WS02004413           JUNCTION     0.71     0.91     6.38     0  03:05        0.91
  WS02004405           JUNCTION     0.82     1.03     6.88     0  03:04        1.03
  WS02006109           JUNCTION     0.81     1.09     7.71     0  03:01        1.08
  WS02006110           JUNCTION     0.79     1.00     7.59     0  03:02        1.00
  WS02006111           JUNCTION     0.23     0.33     7.03     0  03:03        0.33
  WS02006112           JUNCTION     0.88     1.18     7.07     0  02:40        1.16
  WS02006113           JUNCTION     0.37     0.50     7.40     0  03:02        0.50
  WS02006115           JUNCTION     0.60     0.86     7.00     0  03:03        0.86
  WS02006116           JUNCTION     0.68     0.94     6.98     0  03:03        0.94
  WS02006230           JUNCTION     0.79     1.14     7.88     0  03:02        1.14
  WS02006231           JUNCTION     0.52     0.79     7.91     0  03:02        0.79
  WS02006232           JUNCTION     0.64     0.91     7.95     0  03:02        0.90
  WS02006234           JUNCTION     0.57     0.81     7.97     0  03:02        0.81
  WS02006235           JUNCTION     0.60     0.83     8.00     0  03:01        0.83
  WS02006238           JUNCTION     0.63     0.86     8.01     0  03:02        0.85
  WS02006240           JUNCTION     0.57     0.77     8.07     0  03:02        0.77
  WS02006242           JUNCTION     0.65     0.84     8.11     0  03:02        0.84
  WS02006243           JUNCTION     0.56     0.73     8.15     0  03:02        0.73
  WS02006245           JUNCTION     0.54     0.70     8.18     0  03:02        0.70
  WS02006247           JUNCTION     0.56     0.71     8.21     0  03:02        0.71
  WS02006248           JUNCTION     0.51     0.64     8.23     0  03:02        0.64
  WS02006249           JUNCTION     0.54     0.65     8.25     0  03:02        0.65
  WS02006239           JUNCTION     0.61     0.82     8.03     0  03:02        0.82
  WS02006251           JUNCTION     0.57     0.70     8.37     0  03:01        0.70
  WS02006252           JUNCTION     0.53     0.59     8.84     0  03:14        0.59
  WS02006253           JUNCTION     0.59     0.73     8.38     0  03:01        0.73
  WS02006256           JUNCTION     0.81     1.04     7.98     0  03:02        1.04
  WS02004138           JUNCTION     0.17     0.17     7.42     0  00:00        0.17
  WS02004407           JUNCTION     0.24     0.33     6.64     0  03:04        0.33
  WS02006228           JUNCTION     0.81     1.15     7.80     0  03:02        1.14
  WS02006229           JUNCTION     0.80     1.16     7.85     0  03:02        1.16
  WS02006280           JUNCTION     0.08     0.19     8.46     0  03:02        0.19
  WS02006284           JUNCTION     0.38     0.55     8.95     0  03:02        0.55
  WS02006287           JUNCTION     0.12     0.28     9.24     0  03:01        0.28
  WSF200               JUNCTION     0.23     0.35     5.58     0  03:06        0.35
  HS02004901           JUNCTION     0.14     0.28    10.10     0  03:01        0.28
  HS02004881           JUNCTION     0.01     0.04     9.07     0  03:01        0.04
  HS02004876           JUNCTION     0.05     0.12     9.15     0  03:01        0.12
  HS02004870           JUNCTION     0.02     0.06     9.35     0  03:01        0.06
  HS02004862           JUNCTION     0.02     0.07     9.46     0  03:01        0.07
  HS02004856           JUNCTION     0.08     0.13     9.55     0  03:01        0.13
  HS02004852           JUNCTION     0.01     0.05     9.56     0  03:01        0.05
  HS02004848           JUNCTION     0.01     0.05     9.65     0  03:01        0.05
  HS02004842           JUNCTION     0.34     0.38     9.65     0  03:01        0.38
  HS02004837           JUNCTION     0.03     0.07     9.65     0  03:01        0.07
  HS02004830           JUNCTION     0.04     0.08     9.55     0  03:01        0.08
  HS02004824           JUNCTION     0.03     0.06     9.46     0  03:01        0.06
  HS02004817           JUNCTION     0.45     0.60     9.44     0  03:01        0.60
  HS02004807           JUNCTION     0.14     0.27     9.44     0  03:01        0.27
  HS02004802           JUNCTION     0.17     0.30     9.43     0  03:01        0.30
  HS02004799           JUNCTION     0.14     0.33     9.54     0  03:01        0.33
  HS02004792           JUNCTION     0.04     0.14     9.66     0  03:01        0.14
  HS02004788           JUNCTION     0.03     0.10    10.00     0  03:01        0.10
  HS02004785           JUNCTION     0.06     0.17    10.07     0  03:01        0.17
  HS02004777           JUNCTION     0.16     0.30    10.10     0  03:01        0.30
  HS02004770           JUNCTION     0.13     0.27    10.10     0  03:01        0.27
  HS02004480           JUNCTION     0.10     0.26     9.50     0  03:01        0.26
  HS02004479           JUNCTION     0.13     0.30     9.50     0  03:01        0.30
  HS02004478           JUNCTION     0.07     0.18     9.41     0  03:01        0.18
  YS02001745           JUNCTION     0.60     0.86     8.38     0  03:27        0.86
  YS02001748           JUNCTION     0.97     2.18     9.26     0  02:46        1.31
  YS02001751           JUNCTION     1.14     2.20     9.08     0  02:41        1.52
  YS02001754           JUNCTION     1.39     2.10     8.71     0  02:41        1.79
  YS02001762           JUNCTION     1.59     2.03     8.43     0  03:14        2.02
  YS02001765           JUNCTION     1.54     1.98     8.43     0  03:14        1.96
  YS02001767           JUNCTION     1.51     1.93     8.42     0  03:14        1.92
  YS02001770           JUNCTION     1.51     1.91     8.41     0  03:14        1.90
  YS02001774           JUNCTION     1.57     1.97     8.39     0  03:14        1.96
  YS02001779           JUNCTION     1.32     1.68     8.37     0  02:41        1.68
  YS02001882           JUNCTION     0.56     1.61     8.33     0  03:00        1.60
  YS02001884           JUNCTION     0.66     1.71     8.33     0  03:01        1.70
  YS02001759           JUNCTION     1.62     2.06     8.43     0  03:14        2.06
  YS02001887           JUNCTION     0.73     1.79     8.33     0  03:00        1.78
  YS02001890           JUNCTION     0.76     1.81     8.32     0  03:00        1.80
  YS02001898           JUNCTION     0.53     1.55     8.29     0  02:59        1.55
  YS02001901           JUNCTION     0.65     1.67     8.28     0  03:00        1.66
  YS02001904           JUNCTION     0.63     1.64     8.27     0  02:54        1.63
  YS02001907           JUNCTION     0.96     1.96     8.25     0  02:52        1.96
  YS02001910           JUNCTION     0.74     1.78     8.28     0  02:53        1.76
  YS02001915           JUNCTION     0.55     1.59     8.31     0  02:53        1.58
  YS02001918           JUNCTION     0.29     1.26     8.32     0  02:53        1.25
  YS02001619           JUNCTION     1.12     1.61     8.54     0  02:42        1.48
  YS02001629           JUNCTION     1.47     1.85     8.40     0  02:45        1.85
  YS02001641           JUNCTION     1.56     1.93     8.37     0  03:01        1.93
  YS02001644           JUNCTION     1.57     1.92     8.35     0  02:44        1.92
  YS02001652           JUNCTION     1.41     2.16     8.76     0  03:19        1.96
  YS02001655           JUNCTION     1.17     2.20     9.05     0  02:41        1.81
  YS02001920           JUNCTION     0.39     1.34     8.34     0  02:53        1.32
  YS02001923           JUNCTION     0.22     1.09     8.35     0  02:53        1.08
  YS02001926           JUNCTION     0.27     0.90     8.34     0  02:53        0.89
  YS02001929           JUNCTION     0.15     0.68     8.37     0  02:53        0.63
  YS02001658           JUNCTION     0.91     2.30     9.44     0  02:44        1.60
  YS02001661           JUNCTION     0.70     2.45     9.85     0  03:19        1.26
  YS02001664           JUNCTION     0.29     0.58     8.50     0  03:27        0.57
  YS02001622           JUNCTION     1.14     1.60     8.50     0  02:42        1.50
  YS02001633           JUNCTION     1.56     1.96     8.42     0  02:47        1.94
  YS02001649           JUNCTION     1.60     2.05     8.44     0  02:58        2.05
  YS02001757           JUNCTION     1.72     2.16     8.42     0  03:32        2.16
  YS02001895           JUNCTION     0.53     1.56     8.30     0  03:00        1.56
  YS02001625           JUNCTION     1.42     1.78     8.38     0  02:42        1.78
  YS02163301           JUNCTION     1.50     1.90     8.42     0  02:46        1.89
  YS02163601           JUNCTION     1.61     1.99     8.39     0  02:47        1.98
  YS02164001           JUNCTION     1.55     1.92     8.38     0  02:54        1.91
  YS02001647           JUNCTION     1.39     1.80     8.41     0  03:09        1.79
  YSB1154              JUNCTION     0.27     0.45     9.51     0  03:01        0.45
  YSB6556              JUNCTION     0.17     0.34     9.51     0  03:01        0.34
  YSB1174              JUNCTION     0.23     0.40     9.51     0  03:01        0.40
  YSB1171              JUNCTION     0.43     0.60     9.51     0  03:01        0.60
  YS02006553           JUNCTION     0.96     1.96     8.25     0  02:59        1.96
  YS02006561           JUNCTION     0.33     1.08     7.74     0  02:52        1.07
  YS02006556           JUNCTION     0.92     1.92     8.23     0  02:59        1.91
  YS02006558           JUNCTION     0.96     1.96     8.23     0  03:00        1.95
  YS02001783           JUNCTION     0.67     1.47     7.61     0  02:59        1.46
  YS02001784           JUNCTION     0.71     1.42     7.49     0  02:56        1.41
  YS02001786           JUNCTION     0.69     1.26     7.29     0  03:00        1.25
  YS02001788           JUNCTION     0.68     1.13     7.11     0  03:02        1.12
  YS02001790           JUNCTION     0.94     1.30     6.94     0  03:09        1.29
  YS02001791           JUNCTION     1.04     1.28     6.75     0  03:01        1.27
  YS02001793           JUNCTION     1.58     1.80     6.64     0  02:25        1.80
  WS02004139           JUNCTION     0.65     0.68     5.59     0  03:09        0.68
  WSC                  OUTFALL      0.33     0.40     1.07     0  03:08        0.40
  3                    OUTFALL      0.00     0.04     6.04     0  03:02        0.04
  4                    OUTFALL      0.08     0.15     7.15     0  03:02        0.15
  5                    OUTFALL      0.00     0.00     5.00     0  00:00        0.00
  JK-storage           STORAGE      5.52     5.80     6.60     0  02:06        5.80
  CC-storage           STORAGE      0.92     1.34     8.34     0  03:41        1.34
  XR-storage           STORAGE      6.03     7.72     5.72     0  03:07        7.72
  
  
  *******************
  Node Inflow Summary
  *******************
  
  -------------------------------------------------------------------------------------------------
                                  Maximum  Maximum                  Lateral       Total        Flow
                                  Lateral    Total  Time of Max      Inflow      Inflow     Balance
                                   Inflow   Inflow   Occurrence      Volume      Volume       Error
  Node                 Type           LPS      LPS  days hr:min    10^6 ltr    10^6 ltr     Percent
  -------------------------------------------------------------------------------------------------
  WS02001211           JUNCTION      7.35   294.13     0  03:18       0.207        8.21       0.440
  WS02001212           JUNCTION      0.00   295.82     0  03:17           0        8.17       0.253
  WS02001213           JUNCTION      0.00   297.33     0  03:18           0        8.15       0.305
  WS02003069           JUNCTION      0.32   955.03     0  03:07     0.00902        17.2       0.191
  WS02003072           JUNCTION      0.00   954.99     0  03:07           0        17.1       0.230
  WS02003073           JUNCTION      1.82   956.81     0  03:08      0.0514        17.2       0.261
  WS02003060           JUNCTION     16.53   954.69     0  03:06       0.466        17.2       0.180
  WS02003066           JUNCTION      0.00   647.12     0  03:06           0        8.65       0.056
  WS02003059           JUNCTION      0.00   299.60     0  03:17           0        8.13       0.471
  WS02003067           JUNCTION      0.00   647.07     0  03:05           0        8.66       0.115
  WS02004401           JUNCTION      0.00   647.88     0  03:03           0        8.91       0.259
  WS02004402           JUNCTION      0.00   647.95     0  03:03           0        8.88       0.242
  WS02004403           JUNCTION      0.00   647.85     0  03:03           0        8.86       0.219
  WS02004404           JUNCTION      0.16   647.85     0  03:04     0.00457        8.85       0.162
  WS02004406           JUNCTION      0.00   647.92     0  03:04           0        8.81       0.394
  WS02004409           JUNCTION      0.00   647.90     0  03:04           0        8.77       0.207
  WS02004410           JUNCTION      0.00   647.61     0  03:04           0        8.75       0.233
  WS02004411           JUNCTION      0.00   647.39     0  03:05           0        8.73       0.236
  WS02004412           JUNCTION      0.00   647.20     0  03:05           0        8.71       0.252
  WS02004413           JUNCTION      0.00   647.11     0  03:05           0        8.69       0.372
  WS02004405           JUNCTION      0.04   647.90     0  03:04     0.00107        8.83       0.246
  WS02006109           JUNCTION      1.23   639.49     0  03:02      0.0347        8.98       0.251
  WS02006110           JUNCTION      0.00   639.47     0  03:02           0        8.95       0.247
  WS02006111           JUNCTION      0.00   673.14     0  03:02           0        8.92       0.052
  WS02006112           JUNCTION     14.47   650.02     0  03:02      0.0629        8.98       0.321
  WS02006113           JUNCTION      0.00   641.43     0  03:02           0        8.93       0.123
  WS02006115           JUNCTION      0.00   650.40     0  03:03           0        8.95       0.265
  WS02006116           JUNCTION      0.00   648.94     0  03:02           0        8.93       0.227
  WS02006230           JUNCTION     10.28   348.07     0  03:41        0.29         7.1       0.193
  WS02006231           JUNCTION      0.00   337.48     0  03:58           0        6.82       0.168
  WS02006232           JUNCTION      0.00   337.36     0  03:58           0        6.83       0.216
  WS02006234           JUNCTION      0.00   337.22     0  04:00           0        6.84       0.171
  WS02006235           JUNCTION      0.00   337.16     0  03:59           0        6.88       0.130
  WS02006238           JUNCTION      0.00   337.14     0  03:59           0        6.89       0.063
  WS02006240           JUNCTION      0.00   350.31     0  02:03           0        6.91       0.229
  WS02006242           JUNCTION      0.00   355.86     0  02:03           0        6.93       0.261
  WS02006243           JUNCTION      0.00   364.44     0  02:01           0        6.94       0.170
  WS02006245           JUNCTION      0.00   370.31     0  02:00           0        6.96       0.182
  WS02006247           JUNCTION      0.00   375.28     0  02:00           0        6.97       0.147
  WS02006248           JUNCTION      0.00   379.45     0  02:00           0        6.97       0.109
  WS02006249           JUNCTION      0.00   481.00     0  03:01           0        8.83       0.162
  WS02006239           JUNCTION      0.00   339.89     0  02:03           0         6.9       0.165
  WS02006251           JUNCTION      0.08   481.45     0  03:01     0.00217        8.84       0.158
  WS02006252           JUNCTION      0.00   400.00     0  01:59           0        8.48       0.006
  WS02006253           JUNCTION      1.91    81.00     0  03:01     0.00814       0.364       2.250
  WS02006256           JUNCTION      0.00    23.85     0  03:02           0      0.0297       6.499
  WS02004138           JUNCTION      0.00   285.00     0  00:00           0        8.04       0.068
  WS02004407           JUNCTION      0.00   647.98     0  03:04           0        8.78       0.093
  WS02006228           JUNCTION      0.00   638.31     0  03:02           0        8.96       0.181
  WS02006229           JUNCTION      0.00   637.19     0  03:02           0        8.97       0.136
  WS02006280           JUNCTION      0.00   375.55     0  03:02           0        1.89       0.004
  WS02006284           JUNCTION      0.10   375.54     0  03:02      0.0027        1.89       0.064
  WS02006287           JUNCTION      0.00   375.27     0  03:01           0        1.89       0.038
  WSF200               JUNCTION      0.00   647.14     0  03:06           0        8.64       0.056
  HS02004901           JUNCTION     17.47    17.47     0  03:01      0.0757      0.0759       2.380
  HS02004881           JUNCTION      7.55    79.19     0  03:01      0.0331       0.357       0.087
  HS02004876           JUNCTION     14.15    72.10     0  03:01      0.0636       0.324       0.171
  HS02004870           JUNCTION     14.17    58.27     0  03:01      0.0626       0.261       0.043
  HS02004862           JUNCTION     13.95    44.46     0  03:01      0.0685       0.198       0.089
  HS02004856           JUNCTION     10.64    30.79     0  03:01      0.0471       0.131       1.117
  HS02004852           JUNCTION      0.00    20.44     0  03:01           0       0.084       0.069
  HS02004848           JUNCTION     32.07    32.07     0  03:01       0.151       0.151       0.032
  HS02004842           JUNCTION      0.00    11.42     0  03:01           0      0.0801      19.391
  HS02004837           JUNCTION     30.75    41.91     0  03:01       0.288       0.355       0.229
  HS02004830           JUNCTION      0.15    41.84     0  03:01     0.00423       0.346       0.358
  HS02004824           JUNCTION     40.25    81.79     0  03:01       0.197       0.542       0.100
  HS02004817           JUNCTION      0.60    82.19     0  03:01      0.0169       0.558       3.079
  HS02004807           JUNCTION     26.15   107.24     0  03:01       0.115       0.657       0.656
  HS02004802           JUNCTION      0.00   106.49     0  03:01           0       0.653       0.618
  HS02004799           JUNCTION     21.02   227.51     0  03:01      0.0932        1.06       0.236
  HS02004792           JUNCTION     88.55   207.32     0  03:01       0.396       0.966       0.043
  HS02004788           JUNCTION     30.78   119.37     0  03:01       0.177       0.571       0.068
  HS02004785           JUNCTION      0.15    89.79     0  03:01     0.00423       0.396       0.125
  HS02004777           JUNCTION      0.03    90.24     0  03:01    0.000846       0.397       1.326
  HS02004770           JUNCTION     73.89    90.93     0  03:01       0.324       0.398       0.787
  HS02004480           JUNCTION      0.00   269.28     0  03:01           0        1.25       0.099
  HS02004479           JUNCTION      0.00    42.82     0  03:02           0       0.204       0.360
  HS02004478           JUNCTION      0.00   375.17     0  03:01           0        1.89       0.018
  YS02001745           JUNCTION    297.18   437.65     0  02:46        2.34        2.35       0.258
  YS02001748           JUNCTION      0.04   643.33     0  02:46     0.00127        2.34       0.779
  YS02001751           JUNCTION      0.01   407.63     0  02:41     0.00031        2.31       0.994
  YS02001754           JUNCTION      0.26   313.19     0  03:01     0.00733         2.3       1.092
  YS02001762           JUNCTION      0.00   366.22     0  02:59           0        2.22       0.941
  YS02001765           JUNCTION      0.00   366.25     0  02:59           0        2.22       1.087
  YS02001767           JUNCTION      0.54   366.21     0  03:00      0.0151        2.24       1.607
  YS02001770           JUNCTION    373.02   373.02     0  03:01        2.63        2.64       1.182
  YS02001774           JUNCTION      0.00   136.87     0  03:18           0       0.396       6.652
  YS02001779           JUNCTION      0.01   137.33     0  03:18    0.000141       0.363       4.366
  YS02001882           JUNCTION      0.00    13.06     0  02:45           0      0.0172      15.094
  YS02001884           JUNCTION      0.00    21.02     0  02:44           0      0.0524      13.119
  YS02001759           JUNCTION    359.84   720.41     0  03:00        2.43        4.61       0.496
  YS02001887           JUNCTION    453.35   453.35     0  03:01         2.8        2.83       0.301
  YS02001890           JUNCTION      0.00   453.76     0  03:01           0        2.79       0.331
  YS02001898           JUNCTION      0.00   453.88     0  03:01           0        2.77       0.117
  YS02001901           JUNCTION      0.00   454.25     0  03:01           0        2.77       0.249
  YS02001904           JUNCTION      0.00   454.19     0  03:01           0        2.77       0.227
  YS02001907           JUNCTION      0.00   861.88     0  02:58           0        6.12       0.395
  YS02001910           JUNCTION      0.00   429.95     0  02:54           0        3.37       0.351
  YS02001915           JUNCTION    263.65   429.62     0  02:54        1.96        3.39       0.179
  YS02001918           JUNCTION      0.00   196.28     0  02:54           0        1.43       0.129
  YS02001619           JUNCTION    257.27   257.27     0  03:01        1.95        1.95       0.608
  YS02001629           JUNCTION      0.00   218.69     0  02:52           0        1.65       1.702
  YS02001641           JUNCTION      0.00   461.77     0  02:53           0        3.87       0.538
  YS02001644           JUNCTION    282.70   804.15     0  03:33        2.25        6.75       0.382
  YS02001652           JUNCTION      0.00   385.70     0  03:00           0        2.08       1.077
  YS02001655           JUNCTION      0.15   384.75     0  03:00     0.00434         2.1       1.184
  YS02001920           JUNCTION      2.87   196.28     0  02:54      0.0809        1.42       0.209
  YS02001923           JUNCTION      0.04   207.69     0  02:54     0.00106        1.34       0.051
  YS02001926           JUNCTION      0.05   176.18     0  02:54     0.00147        1.34       0.246
  YS02001929           JUNCTION    129.40   129.40     0  03:01        1.34        1.34       0.040
  YS02001658           JUNCTION      0.00   669.71     0  02:44           0        2.13       0.999
  YS02001661           JUNCTION      0.00   717.53     0  03:00           0        2.53      -1.440
  YS02001664           JUNCTION    327.80   359.65     0  02:58        2.09        2.52       0.149
  YS02001622           JUNCTION      0.00   257.70     0  03:01           0        1.94       1.648
  YS02001633           JUNCTION    287.40   462.26     0  02:53        2.32        3.92       0.815
  YS02001649           JUNCTION      0.00   982.73     0  02:53           0        5.19       0.713
  YS02001757           JUNCTION      0.00  1880.91     0  02:54           0        11.3       0.817
  YS02001895           JUNCTION      0.00   453.74     0  03:01           0        2.78       0.176
  YS02001625           JUNCTION      0.00   257.39     0  03:01           0        1.91       2.050
  YS02163301           JUNCTION      0.00   232.05     0  02:44           0        1.63       1.457
  YS02163601           JUNCTION      0.11   462.02     0  02:53      0.0031        3.89       0.770
  YS02164001           JUNCTION      0.00   462.33     0  02:53           0        3.87       0.503
  YS02001647           JUNCTION      0.00   703.48     0  02:53           0        3.68       0.763
  YSB1154              JUNCTION     25.19    25.19     0  03:01       0.113       0.114       1.285
  YSB6556              JUNCTION      0.00    24.91     0  03:01           0       0.115       1.100
  YSB1174              JUNCTION     19.06    19.06     0  03:01      0.0821      0.0827       1.580
  YSB1171              JUNCTION      0.00    43.19     0  03:01           0       0.203       3.219
  YS02006553           JUNCTION      0.00   666.77     0  03:18           0         5.9       0.260
  YS02006561           JUNCTION      0.00   964.20     0  03:00           0        8.42       0.008
  YS02006556           JUNCTION      0.00   667.08     0  03:17           0         5.9       0.191
  YS02006558           JUNCTION    392.87   964.67     0  03:00        2.57        8.44       0.062
  YS02001783           JUNCTION      0.00   964.25     0  03:00           0        8.41       0.086
  YS02001784           JUNCTION      1.06   965.55     0  03:00      0.0299        8.44       0.127
  YS02001786           JUNCTION      0.06   965.33     0  03:00     0.00159        8.43       0.162
  YS02001788           JUNCTION      0.07   965.38     0  03:00       0.002        8.42       0.164
  YS02001790           JUNCTION      0.15   965.51     0  03:00     0.00437        8.41       0.205
  YS02001791           JUNCTION      0.00   965.45     0  03:00           0        8.39       0.173
  YS02001793           JUNCTION      0.00   965.78     0  03:00           0        8.38       0.200
  WS02004139           JUNCTION      0.32   291.91     0  00:00     0.00905        8.04       0.488
  WSC                  OUTFALL       0.00   956.75     0  03:08           0        17.1       0.000
  3                    OUTFALL       0.00    23.84     0  03:02           0      0.0273       0.000
  4                    OUTFALL       0.00   205.35     0  03:02           0        1.84       0.000
  5                    OUTFALL       0.00     0.00     0  00:00           0           0       0.000 ltr
  JK-storage           STORAGE       0.00   965.62     0  03:00           0        8.51       0.237
  CC-storage           STORAGE       0.00  1880.38     0  02:54           0        11.1      -0.248
  XR-storage           STORAGE     690.11   690.11     0  03:01        9.61        10.2      -0.003
  
  
  **********************
  Node Surcharge Summary
  **********************
  
  Surcharging occurs when water rises above the top of the highest conduit.
  ---------------------------------------------------------------------
                                               Max. Height   Min. Depth
                                   Hours       Above Crown    Below Rim
  Node                 Type      Surcharged         Meters       Meters
  ---------------------------------------------------------------------
  WS02004404           JUNCTION        0.61          0.044        2.736
  WS02004406           JUNCTION        0.28          0.019        2.431
  WS02004405           JUNCTION        0.45          0.031        2.769
  WS02006109           JUNCTION        1.76          0.268        1.552
  WS02006110           JUNCTION        1.12          0.093        1.757
  WS02006112           JUNCTION        1.20          0.184        1.496
  WS02006230           JUNCTION        0.45          0.060        1.510
  WS02006231           JUNCTION        0.72          0.081        1.449
  WS02006232           JUNCTION        1.51          0.209        1.271
  WS02006234           JUNCTION        1.04          0.093        1.147
  WS02006235           JUNCTION        1.17          0.124        1.166
  WS02006238           JUNCTION        1.25          0.141        1.289
  WS02006240           JUNCTION        1.03          0.063        1.327
  WS02006242           JUNCTION        1.29          0.107        0.713
  WS02006243           JUNCTION        0.44          0.017        0.753
  WS02006239           JUNCTION        1.11          0.084        1.206
  WS02006252           JUNCTION        5.88          0.193        0.907
  WS02006228           JUNCTION        1.71          0.321        1.879
  YS02001748           JUNCTION        4.18          1.099        0.091
  YS02001751           JUNCTION        5.11          1.200        0.000
  YS02001754           JUNCTION        5.28          1.048        0.102
  YS02001762           JUNCTION        5.64          1.034        0.116
  YS02001765           JUNCTION        5.60          0.981        0.119
  YS02001767           JUNCTION        5.47          0.932        0.098
  YS02001770           JUNCTION        5.40          0.883        0.037
  YS02001774           JUNCTION        5.63          0.972        0.078
  YS02001779           JUNCTION        5.27          0.680        0.000
  YS02001882           JUNCTION        0.80          0.610        0.220
  YS02001884           JUNCTION        0.84          0.650        0.220
  YS02001759           JUNCTION        5.66          1.065        0.145
  YS02001887           JUNCTION        0.93          0.742        0.208
  YS02001890           JUNCTION        0.96          0.760        0.000
  YS02001898           JUNCTION        0.76          0.522        0.218
  YS02001901           JUNCTION        0.89          0.670        0.200
  YS02001904           JUNCTION        0.87          0.637        0.213
  YS02001907           JUNCTION        1.52          0.950        0.000
  YS02001910           JUNCTION        1.01          0.775        0.325
  YS02001915           JUNCTION        0.79          0.587        0.413
  YS02001918           JUNCTION        0.53          0.257        0.553
  YS02001619           JUNCTION        5.12          0.610        0.000
  YS02001629           JUNCTION        5.13          0.470        0.000
  YS02001641           JUNCTION        5.61          0.934        0.166
  YS02001644           JUNCTION        5.62          0.920        0.000
  YS02001652           JUNCTION        5.31          1.130        0.000
  YS02001655           JUNCTION        5.14          1.200        0.000
  YS02001920           JUNCTION        0.57          0.335        0.805
  YS02001658           JUNCTION        4.27          1.300        0.000
  YS02001661           JUNCTION        0.20          1.378        0.012
  YS02001622           JUNCTION        5.16          0.599        0.021
  YS02001633           JUNCTION        5.60          0.942        0.118
  YS02001649           JUNCTION        5.64          1.050        0.000
  YS02001757           JUNCTION        5.74          1.162        0.048
  YS02001895           JUNCTION        0.77          0.558        0.192
  YS02001625           JUNCTION        5.36          0.780        0.000
  YS02163301           JUNCTION        5.49          0.903        0.127
  YS02163601           JUNCTION        5.64          0.991        0.089
  YS02164001           JUNCTION        5.60          0.922        0.178
  YS02001647           JUNCTION        5.33          0.804        0.096
  YS02006553           JUNCTION        1.59          0.964        0.226
  YS02006561           JUNCTION        0.67          0.282        0.868
  YS02006556           JUNCTION        1.24          0.879        0.471
  YS02006558           JUNCTION        1.20          0.858        0.542
  YS02001783           JUNCTION        1.47          0.671        0.929
  YS02001784           JUNCTION        1.54          0.618        0.872
  YS02001786           JUNCTION        1.47          0.463        0.967
  YS02001788           JUNCTION        1.46          0.330        1.150
  YS02001790           JUNCTION        5.75          0.495        0.662
  YS02001791           JUNCTION        5.77          0.478        1.442
  YS02001793           JUNCTION        5.81          0.804        1.796
  
  
  *********************
  Node Flooding Summary
  *********************
  
  Flooding refers to all water that overflows a node, whether it ponds or not.
  --------------------------------------------------------------------------
                                                             Total   Maximum
                                 Maximum   Time of Max       Flood    Ponded
                        Hours       Rate    Occurrence      Volume     Depth
  Node                 Flooded       LPS   days hr:min    10^6 ltr    Meters
  --------------------------------------------------------------------------
  YS02001751              0.01    207.29      0  02:41       0.000     0.000
  YS02001779              1.95    137.23      0  03:18       0.340     0.000
  YS02001890              0.01      0.19      0  03:00       0.000     0.000
  YS02001907              0.38    276.71      0  02:58       0.212     0.000
  YS02001619              0.01      9.18      0  02:42       0.000     0.000
  YS02001629              0.01     24.82      0  02:45       0.000     0.000
  YS02001644              2.92    804.11      0  03:33       3.686     0.000
  YS02001652              0.01      9.27      0  03:53       0.000     0.000
  YS02001655              0.01    203.21      0  02:41       0.000     0.000
  YS02001658              0.01    373.69      0  02:44       0.000     0.000
  YS02001649              0.04     42.97      0  03:12       0.002     0.000
  YS02001625              0.85    164.70      0  03:01       0.216     0.000
  JK-storage              5.72    965.61      0  03:00       8.198     0.000
  XR-storage              3.22    363.04      0  03:07       1.359     0.000
  
  
  **********************
  Storage Volume Summary
  **********************
  
  --------------------------------------------------------------------------------------------------
                         Average     Avg  Evap Exfil       Maximum     Max    Time of Max    Maximum
                          Volume    Pcnt  Pcnt  Pcnt        Volume    Pcnt     Occurrence    Outflow
  Storage Unit           1000 m3    Full  Loss  Loss       1000 m3    Full    days hr:min        LPS
  --------------------------------------------------------------------------------------------------
  JK-storage               0.277      95     0     0         0.291     100       0  02:06      38.57
  CC-storage               2.565      16     0     0         3.728      24       0  03:41     400.00
  XR-storage               0.724      78     0     0         0.926     100       0  03:07     285.00
  
  
  ***********************
  Outfall Loading Summary
  ***********************
  
  -----------------------------------------------------------
                         Flow       Avg       Max       Total
                         Freq      Flow      Flow      Volume
  Outfall Node           Pcnt       LPS       LPS    10^6 ltr
  -----------------------------------------------------------
  WSC                   99.99    682.94    956.75      17.106
  3                     15.63      9.53     23.84       0.027
  4                     88.83     94.01    205.35       1.837
  5                      0.00      0.00      0.00       0.000
  -----------------------------------------------------------
  System                51.11    786.48   1174.60      18.970
  
  
  ********************
  Link Flow Summary
  ********************
  
  -----------------------------------------------------------------------------
                                 Maximum  Time of Max   Maximum    Max/    Max/
                                  |Flow|   Occurrence   |Veloc|    Full    Full
  Link                 Type          LPS  days hr:min     m/sec    Flow   Depth
  -----------------------------------------------------------------------------
  WS02003066WSF200     CONDUIT    647.14     0  03:06      2.80    0.11    0.26
  WS02006287WS02006284 CONDUIT    375.45     0  03:02      1.98    0.17    0.29
  WS02006284WS02006280 CONDUIT    375.55     0  03:02      2.22    0.16    0.27
  WS02006280WS02006229 CONDUIT    375.59     0  03:02      3.58    0.08    0.19
  WS02006229WS02006228 CONDUIT    638.31     0  03:02      1.27    2.11    1.00
  WS02006256WS02006235 CONDUIT     23.85     0  03:02      0.35    0.25    1.00
  WS02006253WS02006251 CONDUIT     80.97     0  03:01      0.46    0.24    1.00
  WS02006252WS02006251 CONDUIT    400.69     0  05:53      3.19    1.47    1.00
  WS02006251WS02006249 CONDUIT    481.00     0  03:01      1.26    1.39    0.96
  WS02006249WS02006248 CONDUIT    379.45     0  02:00      1.24    2.08    0.91
  WS02006248WS02006247 CONDUIT    375.28     0  02:00      1.21    0.82    0.95
  WS02006247WS02006245 CONDUIT    370.31     0  02:00      1.18    2.94    0.99
  WS02006245WS02006243 CONDUIT    364.44     0  02:01      1.27    1.08    1.00
  WS02006243WS02006242 CONDUIT    355.86     0  02:03      1.15    0.76    1.00
  WS02006242WS02006240 CONDUIT    350.31     0  02:03      1.07    1.39    1.00
  WS02006240WS02006239 CONDUIT    339.89     0  02:03      1.18    1.07    1.00
  WS02006239WS02006238 CONDUIT    337.14     0  03:59      1.02    1.08    1.00
  WS02006238WS02006235 CONDUIT    337.15     0  03:59      1.02    0.75    1.00
  WS02006235WS02006234 CONDUIT    337.22     0  04:00      1.16    3.56    1.00
  WS02006234WS02006232 CONDUIT    337.36     0  03:58      0.93    0.68    1.00
  WS02006232WS02006231 CONDUIT    337.48     0  03:58      0.98    0.71    1.00
  WS02006231WS02006230 CONDUIT    337.79     0  03:41      1.29    5.12    1.00
  WS02006230WS02006229 CONDUIT    348.89     0  03:39      0.91    7.76    1.00
  WS02006228WS02006109 CONDUIT    638.26     0  03:02      1.27    2.79    1.00
  WS02006116WS02004401 CONDUIT    647.88     0  03:03      0.84    0.89    0.95
  WS02006115WS02006116 CONDUIT    648.94     0  03:02      0.93    0.83    0.87
  WS02006113WS02006111 CONDUIT    673.14     0  03:02      2.60    0.81    0.52
  WS02006112WS02006115 CONDUIT    650.40     0  03:03      0.86    0.38    0.93
  WS02006111WS02006112 CONDUIT    639.02     0  03:03      1.71    0.30    0.70
  WS02006110WS02006113 CONDUIT    641.43     0  03:02      1.46    0.58    0.81
  WS02006109WS02006110 CONDUIT    639.47     0  03:02      1.27    1.23    1.00
  WS02004411WS02004412 CONDUIT    647.20     0  03:05      1.02    0.92    0.76
  WS02004401WS02004402 CONDUIT    647.95     0  03:03      0.84    0.78    0.96
  WS02004413WS02003067 CONDUIT    647.07     0  03:05      1.23    0.28    0.63
  WS02004412WS02004413 CONDUIT    647.11     0  03:05      0.93    0.43    0.83
  WS02004410WS02004411 CONDUIT    647.39     0  03:05      1.02    0.88    0.75
  WS02004409WS02004410 CONDUIT    647.61     0  03:04      1.03    0.84    0.75
  WS02004407WS02004409 CONDUIT    647.90     0  03:04      1.52    0.23    0.53
  WS02004406WS02004407 CONDUIT    647.98     0  03:04      1.17    0.29    0.66
  WS02004405WS02004406 CONDUIT    647.92     0  03:04      0.82    1.28    1.00
  WS02004404WS02004405 CONDUIT    647.86     0  03:04      0.82    6.35    1.00
  WS02004403WS02004404 CONDUIT    647.69     0  03:04      0.83    0.47    0.99
  WS02004402WS02004403 CONDUIT    647.85     0  03:03      0.83    0.93    0.98
  WS02004139WS02001211 CONDUIT    286.79     0  03:18      0.81    0.36    0.55
  WS02004138WS02004139 CONDUIT    291.59     0  00:00      3.34    0.06    0.40
  WS02003067WS02003066 CONDUIT    647.12     0  03:06      1.34    0.21    0.44
  WS02001213WS02003059 CONDUIT    299.60     0  03:17      0.78    0.49    0.75
  WS02001212WS02001213 CONDUIT    297.33     0  03:18      1.19    0.46    0.44
  WS02001211WS02001212 CONDUIT    295.82     0  03:17      0.67    0.23    0.60
  WS02003072WS02003073 CONDUIT    954.99     0  03:08      1.74    2.06    0.49
  WS02003069WS02003072 CONDUIT    954.99     0  03:07      1.63    0.46    0.51
  WS02003060WS02003069 CONDUIT    954.71     0  03:07      1.87    0.37    0.46
  WS02003059WS02003060 CONDUIT    302.69     0  03:17      0.82    0.20    0.66
  HS02004901HS02004770 CONDUIT     17.71     0  03:01      0.07    0.07    0.39
  HS02004876HS02004881 CONDUIT     71.90     0  03:01      0.92    0.76    0.11
  HS02004870HS02004876 CONDUIT     58.03     0  03:01      0.63    0.04    0.13
  HS02004842HS02004848 CONDUIT     11.42     0  03:01      0.05    0.01    0.30
  HS02004837HS02004842 CONDUIT     11.94     0  03:02      0.42    0.01    0.32
  HS02004830HS02004837 CONDUIT     41.69     0  03:01      0.56    0.04    0.11
  HS02004824HS02004830 CONDUIT     41.67     0  03:01      0.58    0.05    0.10
  HS02004817HS02004824 CONDUIT     81.59     0  03:01      0.25    0.04    0.47
  HS02004770HS02004777 CONDUIT     90.21     0  03:01      0.32    0.16    0.41
  HS02004799HS02004480 CONDUIT    226.98     0  03:01      0.78    0.29    0.42
  HS02004792HS02004799 CONDUIT    206.61     0  03:01      0.88    0.13    0.33
  HS02004788HS02004792 CONDUIT    118.94     0  03:01      1.01    0.08    0.17
  HS02004785HS02004788 CONDUIT     89.52     0  03:02      0.66    0.67    0.19
  HS02004777HS02004785 CONDUIT     89.64     0  03:01      0.38    0.11    0.33
  HS02004480HS02004478 CONDUIT    269.12     0  03:01      1.20    1.13    0.32
  HS02004479HS02004480 CONDUIT     44.17     0  03:02      0.23    0.04    0.40
  HS02004862HS02004870 CONDUIT     44.23     0  03:01      0.64    0.05    0.10
  HS02004848HS02004852 CONDUIT     20.44     0  03:01      0.44    0.02    0.07
  HS02004856HS02004862 CONDUIT     30.57     0  03:01      0.47    0.03    0.09
  HS02004852HS02004856 CONDUIT     20.26     0  03:01      0.24    0.02    0.12
  HS02004802HS02004478 CONDUIT    106.59     0  03:02      0.45    0.09    0.35
  HS02004478WS02006287 CONDUIT    375.27     0  03:01      1.68    0.11    0.25
  HS02004817HS02004807 CONDUIT     82.18     0  03:01      0.19    0.05    0.62
  HS02004807HS02004802 CONDUIT    106.49     0  03:01      0.38    0.20    0.40
  YS02001759YS02001757 CONDUIT    720.20     0  03:00      0.92    0.51    1.00
  YS02001762YS02001759 CONDUIT    365.78     0  02:59      0.47    0.42    1.00
  YS02001765YS02001762 CONDUIT    366.22     0  02:59      0.47    0.34    1.00
  YS02001770YS02001767 CONDUIT    365.68     0  03:00      0.47    1.45    1.00
  YS02001774YS02001770 CONDUIT    136.87     0  03:18      0.18    0.09    1.00
  YS02001779YS02001774 CONDUIT    137.33     0  03:18      0.17    0.07    1.00
  YS02001649YS02001757 CONDUIT    982.65     0  02:53      1.25    0.60    1.00
  YS02001767YS02001765 CONDUIT    366.25     0  02:59      0.47    0.46    1.00
  YS02006561YS02001783 CONDUIT    964.25     0  03:00      1.92    0.50    1.00
  YS02001783YS02001784 CONDUIT    964.49     0  03:00      1.92    1.33    1.00
  YS02001784YS02001785 CONDUIT    965.28     0  03:00      1.92    2.25    1.00
  YS02001788YS02001790 CONDUIT    965.35     0  03:00      1.92    0.71    1.00
  YS02001790YS02001791 CONDUIT    965.45     0  03:00      2.00    1.05    1.00
  YS02001791YS02001793 CONDUIT    965.78     0  03:00      3.54    0.41    1.00
  YS02001910YS02001907 CONDUIT    429.67     0  02:54      0.55    0.24    1.00
  YS02001786YS02001788 CONDUIT    965.31     0  03:00      1.92    1.86    1.00
  YS02001915YS02001910 CONDUIT    429.95     0  02:54      0.55    0.21    1.00
  YS02001918YS02001915 CONDUIT    196.53     0  02:54      0.44    0.11    1.00
  YS02001923YS02001920 CONDUIT    193.41     0  02:54      0.68    0.09    1.00
  YS02001926YS02001923 CONDUIT    207.65     0  02:54      0.79    0.30    0.89
  YS02001929YS02001926 CONDUIT    176.13     0  02:54      0.84    0.08    0.79
  YS02001920YS02001918 CONDUIT    196.28     0  02:54      0.67    0.19    1.00
  YS02001629YS02163301 CONDUIT    232.05     0  02:44      0.30    0.29    1.00
  YS02001619YS02001622 CONDUIT    257.70     0  03:01      0.61    0.38    1.00
  YS02001622YS02001625 CONDUIT    257.39     0  03:01      0.33    0.14    1.00
  YS02001625YS02001629 CONDUIT    218.69     0  02:52      0.28    0.10    1.00
  YS02163301YS02001633 CONDUIT    232.90     0  02:44      0.30    0.22    1.00
  YS02163601YS02164001 CONDUIT    462.33     0  02:53      0.59    0.41    1.00
  YS02164001YS02001641 CONDUIT    461.77     0  02:53      0.59    0.63    1.00
  YS02001641YS02001644 CONDUIT    461.37     0  02:53      0.59    1.49    1.00
  YS02001647YS02001649 CONDUIT    702.98     0  02:53      0.90    0.37    1.00
  YS02006553YS02006556 CONDUIT    667.08     0  03:17      0.85    0.57    1.00
  YS02006556YS02006558 CONDUIT    667.44     0  03:17      0.85    0.53    1.00
  YSB6556YSB1171       CONDUIT     24.82     0  03:03      0.09    0.03    0.67
  YS02001907YS02006553 CONDUIT    666.77     0  03:18      0.74    0.78    1.00
  YS02006558YS02006561 CONDUIT    964.20     0  03:00      3.41    2.13    1.00
  YS02001633YS02163601 CONDUIT    461.91     0  02:53      0.59    0.48    1.00
  YS02001644YS02001647 CONDUIT    703.48     0  02:53      0.90    0.41    1.00
  YS02001745YS02001748 CONDUIT    643.29     0  02:46      1.48    0.25    0.93
  YS02001748YS02001751 CONDUIT    407.62     0  02:41      1.05    0.21    1.00
  YS02001751YS02001754 CONDUIT    312.93     0  03:01      0.88    0.15    1.00
  YS02001754YS02001757 CONDUIT    312.95     0  03:01      0.40    0.13    1.00
  YS02001882YS02001884 CONDUIT     13.06     0  02:45      0.09    0.01    1.00
  YS02001884YS02001887 CONDUIT     21.02     0  02:44      0.05    0.03    1.00
  YS02001890YS02001895 CONDUIT    453.74     0  03:01      0.58    0.21    1.00
  YS02001895YS02001898 CONDUIT    453.88     0  03:01      0.58    0.79    1.00
  YS02001898YS02001901 CONDUIT    454.25     0  03:01      0.58    0.29    1.00
  YS02001901YS02001904 CONDUIT    454.19     0  03:01      0.58    0.70    1.00
  YS02001904YS02001907 CONDUIT    454.30     0  03:01      0.58    0.16    1.00
  YS02001887YS02001890 CONDUIT    453.76     0  03:01      0.58    0.78    1.00
  YS02001652YS02001649 CONDUIT    386.90     0  03:00      0.50    0.19    1.00
  YS02001655YS02001652 CONDUIT    385.70     0  03:00      0.93    0.19    1.00
  YS02001658YS02001655 CONDUIT    384.60     0  03:00      1.21    0.16    1.00
  YS02001661YS02001658 CONDUIT    669.71     0  02:44      1.56    0.26    1.00
  YS02001664YS02001661 CONDUIT    717.53     0  03:00      1.63    0.23    0.71
  YSB1154YSB6556       CONDUIT     24.91     0  03:01      0.18    0.04    0.56
  YSB1174YSB1171       CONDUIT     18.78     0  03:01      0.07    0.03    0.68
  YSB1171HS02004479    CONDUIT     42.82     0  03:02      0.54    0.03    0.53
  HS02004881HS02006253 CONDUIT     79.16     0  03:01      1.60    0.02    0.31
  YS02001793JiankangQianchi CONDUIT    965.62     0  03:00      1.23    0.08    1.00
  YS02001757CaochengTiaoxuchi CONDUIT   1880.38     0  02:54      2.61    0.83    1.00
  WSF200WS02003060     CONDUIT    647.19     0  03:06      1.76    0.14    0.36
  1                    CONDUIT    956.75     0  03:08      3.29    0.33    0.40
  2                    CONDUIT    205.35     0  03:02      5.88    0.49    0.50
  3                    CONDUIT     23.84     0  03:02      4.23    0.04    0.13
  4                    CONDUIT      0.00     0  00:00      0.00    0.00    0.00
  CC-Pump-1            PUMP       200.00     0  01:59              1.00
  CC-Pump-2            PUMP       200.00     0  01:59              1.00
  JK-Pump-1            PUMP         0.00     0  00:00              0.00
  JK-Pump-2            PUMP         0.00     0  00:00              0.00
  XR-Pump-1            PUMP        95.00     0  00:00              1.00
  XR-Pump-2            PUMP        95.00     0  00:00              1.00
  XR-Pump-3            PUMP        95.00     0  00:00              1.00
  XR-Pump-4            PUMP         0.00     0  00:00              0.00
  
  
  ***************************
  Flow Classification Summary
  ***************************
  
  -------------------------------------------------------------------------------------
                      Adjusted    ---------- Fraction of Time in Flow Class ---------- 
                       /Actual         Up    Down  Sub   Sup   Up    Down  Norm  Inlet 
  Conduit               Length    Dry  Dry   Dry   Crit  Crit  Crit  Crit  Ltd   Ctrl  
  -------------------------------------------------------------------------------------
  WS02003066WSF200        1.00   0.11  0.00  0.00  0.00  0.89  0.00  0.00  0.58  0.00
  WS02006287WS02006284    1.00   0.03  0.02  0.00  0.51  0.43  0.00  0.00  0.65  0.00
  WS02006284WS02006280    1.00   0.04  0.00  0.00  0.00  0.00  0.00  0.96  0.00  0.00
  WS02006280WS02006229    1.00   0.04  0.00  0.00  0.00  0.00  0.00  0.96  0.00  0.00
  WS02006229WS02006228    1.00   0.00  0.00  0.00  1.00  0.00  0.00  0.00  0.00  0.00
  WS02006256WS02006235    1.00   0.07  0.00  0.00  0.93  0.00  0.00  0.00  0.01  0.00
  WS02006253WS02006251    1.00   0.02  0.02  0.00  0.96  0.00  0.00  0.00  0.00  0.00
  WS02006252WS02006251    1.00   0.09  0.00  0.00  0.00  0.00  0.91  0.00  0.00  0.00
  WS02006251WS02006249    1.00   0.00  0.00  0.00  1.00  0.00  0.00  0.00  0.22  0.00
  WS02006249WS02006248    1.00   0.00  0.01  0.00  0.90  0.00  0.09  0.00  0.00  0.00
  WS02006248WS02006247    1.00   0.01  0.00  0.00  0.98  0.00  0.00  0.02  0.11  0.00
  WS02006247WS02006245    1.00   0.01  0.00  0.00  0.96  0.00  0.00  0.03  0.00  0.00
  WS02006245WS02006243    1.00   0.01  0.00  0.00  0.92  0.00  0.00  0.07  0.00  0.00
  WS02006243WS02006242    1.00   0.01  0.00  0.00  0.94  0.00  0.00  0.04  0.05  0.00
  WS02006242WS02006240    1.00   0.02  0.04  0.00  0.94  0.00  0.01  0.00  0.00  0.00
  WS02006240WS02006239    1.00   0.06  0.00  0.00  0.91  0.00  0.00  0.04  0.00  0.00
  WS02006239WS02006238    1.00   0.06  0.00  0.00  0.93  0.00  0.00  0.01  0.00  0.00
  WS02006238WS02006235    1.00   0.06  0.01  0.00  0.93  0.00  0.00  0.00  0.00  0.00
  WS02006235WS02006234    1.00   0.07  0.00  0.00  0.91  0.00  0.02  0.00  0.00  0.00
  WS02006234WS02006232    1.00   0.07  0.00  0.00  0.93  0.00  0.00  0.00  0.01  0.00
  WS02006232WS02006231    1.00   0.07  0.01  0.00  0.92  0.00  0.00  0.00  0.01  0.00
  WS02006231WS02006230    1.00   0.08  0.00  0.00  0.92  0.00  0.00  0.00  0.00  0.00
  WS02006230WS02006229    1.00   0.00  0.00  0.00  0.99  0.00  0.00  0.01  0.00  0.00
  WS02006228WS02006109    1.00   0.00  0.00  0.00  1.00  0.00  0.00  0.00  0.00  0.00
  WS02006116WS02004401    1.00   0.03  0.00  0.00  0.97  0.00  0.00  0.00  0.01  0.00
  WS02006115WS02006116    1.00   0.03  0.00  0.00  0.93  0.00  0.00  0.04  0.00  0.00
  WS02006113WS02006111    1.00   0.02  0.00  0.00  0.01  0.97  0.00  0.00  0.17  0.00
  WS02006112WS02006115    1.00   0.02  0.01  0.00  0.96  0.00  0.00  0.00  0.00  0.00
  WS02006111WS02006112    1.00   0.02  0.00  0.00  0.97  0.00  0.00  0.00  0.87  0.00
  WS02006110WS02006113    1.00   0.00  0.02  0.00  0.98  0.00  0.00  0.00  0.00  0.00
  WS02006109WS02006110    1.00   0.00  0.00  0.00  0.99  0.00  0.00  0.00  0.00  0.00
  WS02004411WS02004412    1.00   0.08  0.00  0.00  0.92  0.00  0.00  0.00  0.00  0.00
  WS02004401WS02004402    1.00   0.04  0.00  0.00  0.96  0.00  0.00  0.00  0.04  0.00
  WS02004413WS02003067    1.00   0.09  0.02  0.00  0.00  0.00  0.90  0.00  0.00  0.00
  WS02004412WS02004413    1.00   0.08  0.00  0.00  0.91  0.00  0.00  0.00  0.00  0.00
  WS02004410WS02004411    1.00   0.08  0.00  0.00  0.92  0.00  0.00  0.00  0.00  0.00
  WS02004409WS02004410    1.00   0.08  0.00  0.00  0.92  0.00  0.00  0.00  0.00  0.00
  WS02004407WS02004409    1.00   0.08  0.00  0.00  0.91  0.01  0.00  0.00  0.77  0.00
  WS02004406WS02004407    1.00   0.00  0.08  0.00  0.92  0.00  0.00  0.00  0.00  0.00
  WS02004405WS02004406    1.00   0.00  0.00  0.00  1.00  0.00  0.00  0.00  0.04  0.00
  WS02004404WS02004405    1.00   0.00  0.00  0.00  1.00  0.00  0.00  0.00  0.00  0.00
  WS02004403WS02004404    1.00   0.00  0.04  0.00  0.96  0.00  0.00  0.00  0.04  0.00
  WS02004402WS02004403    1.00   0.04  0.00  0.00  0.96  0.00  0.00  0.00  0.00  0.00
  WS02004139WS02001211    1.00   0.00  0.00  0.00  1.00  0.00  0.00  0.00  0.00  0.00
  WS02004138WS02004139    1.00   0.00  0.00  0.00  1.00  0.00  0.00  0.00  1.00  0.00
  WS02003067WS02003066    1.00   0.10  0.01  0.00  0.89  0.00  0.00  0.00  0.00  0.00
  WS02001213WS02003059    1.00   0.00  0.00  0.00  1.00  0.00  0.00  0.00  0.00  0.00
  WS02001212WS02001213    1.00   0.00  0.00  0.00  0.86  0.00  0.14  0.00  0.00  0.00
  WS02001211WS02001212    1.00   0.00  0.00  0.00  1.00  0.00  0.00  0.00  0.00  0.00
  WS02003072WS02003073    1.00   0.00  0.00  0.00  0.00  0.00  0.00  1.00  0.00  0.00
  WS02003069WS02003072    1.00   0.00  0.00  0.00  1.00  0.00  0.00  0.00  0.23  0.00
  WS02003060WS02003069    1.00   0.00  0.00  0.00  0.99  0.01  0.00  0.00  0.00  0.00
  WS02003059WS02003060    1.00   0.00  0.00  0.00  1.00  0.00  0.00  0.00  0.01  0.00
  HS02004901HS02004770    1.00   0.04  0.00  0.00  0.96  0.00  0.00  0.00  0.00  0.00
  HS02004876HS02004881    1.00   0.01  0.00  0.00  0.89  0.10  0.00  0.00  0.00  0.00
  HS02004870HS02004876    1.00   0.00  0.00  0.00  1.00  0.00  0.00  0.00  0.95  0.00
  HS02004842HS02004848    1.00   0.00  0.04  0.00  0.96  0.00  0.00  0.00  0.58  0.00
  HS02004837HS02004842    1.00   0.00  0.00  0.00  1.00  0.00  0.00  0.00  0.11  0.00
  HS02004830HS02004837    1.00   0.00  0.00  0.00  1.00  0.00  0.00  0.00  0.99  0.00
  HS02004824HS02004830    1.00   0.00  0.00  0.00  1.00  0.00  0.00  0.00  0.00  0.00
  HS02004817HS02004824    1.00   0.00  0.00  0.00  1.00  0.00  0.00  0.00  1.00  0.00
  HS02004770HS02004777    1.00   0.00  0.04  0.00  0.96  0.00  0.00  0.00  0.03  0.00
  HS02004799HS02004480    1.00   0.00  0.01  0.00  0.95  0.00  0.04  0.00  0.00  0.00
  HS02004792HS02004799    1.00   0.00  0.00  0.00  1.00  0.00  0.00  0.00  0.98  0.00
  HS02004788HS02004792    1.00   0.00  0.00  0.00  1.00  0.00  0.00  0.00  0.98  0.00
  HS02004785HS02004788    1.00   0.00  0.00  0.00  1.00  0.00  0.00  0.00  0.00  0.00
  HS02004777HS02004785    1.00   0.00  0.00  0.00  1.00  0.00  0.00  0.00  0.14  0.00
  HS02004480HS02004478    1.00   0.04  0.00  0.00  0.58  0.00  0.00  0.38  0.00  0.00
  HS02004479HS02004480    1.00   0.01  0.00  0.00  0.99  0.00  0.00  0.00  0.13  0.00
  HS02004862HS02004870    1.00   0.00  0.00  0.00  1.00  0.00  0.00  0.00  0.05  0.00
  HS02004848HS02004852    1.00   0.04  0.00  0.00  0.96  0.00  0.00  0.00  0.61  0.00
  HS02004856HS02004862    1.00   0.00  0.06  0.00  0.94  0.00  0.00  0.00  0.80  0.00
  HS02004852HS02004856    1.00   0.04  0.00  0.00  0.95  0.00  0.00  0.00  0.85  0.00
  HS02004802HS02004478    1.00   0.04  0.00  0.00  0.95  0.00  0.00  0.00  0.03  0.00
  HS02004478WS02006287    1.00   0.05  0.00  0.00  0.66  0.28  0.00  0.00  0.66  0.00
  HS02004817HS02004807    1.00   0.00  0.04  0.00  0.96  0.00  0.00  0.00  0.01  0.00
  HS02004807HS02004802    1.00   0.04  0.00  0.00  0.95  0.00  0.00  0.01  0.00  0.00
  YS02001759YS02001757    1.00   0.00  0.00  0.00  1.00  0.00  0.00  0.00  0.16  0.00
  YS02001762YS02001759    1.00   0.00  0.00  0.00  1.00  0.00  0.00  0.00  0.03  0.00
  YS02001765YS02001762    1.00   0.00  0.00  0.00  1.00  0.00  0.00  0.00  0.16  0.00
  YS02001770YS02001767    1.00   0.00  0.00  0.00  1.00  0.00  0.00  0.00  0.00  0.00
  YS02001774YS02001770    1.00   0.00  0.04  0.00  0.96  0.00  0.00  0.00  0.04  0.00
  YS02001779YS02001774    1.00   0.00  0.00  0.00  1.00  0.00  0.00  0.00  0.21  0.00
  YS02001649YS02001757    1.00   0.00  0.00  0.00  1.00  0.00  0.00  0.00  0.17  0.00
  YS02001767YS02001765    1.00   0.00  0.00  0.00  1.00  0.00  0.00  0.00  0.00  0.00
  YS02006561YS02001783    1.00   0.07  0.00  0.00  0.87  0.06  0.00  0.00  0.60  0.00
  YS02001783YS02001784    1.00   0.00  0.07  0.00  0.93  0.00  0.00  0.00  0.01  0.00
  YS02001784YS02001785    1.00   0.00  0.00  0.00  1.00  0.00  0.00  0.00  0.20  0.00
  YS02001788YS02001790    1.00   0.00  0.00  0.00  0.95  0.05  0.00  0.00  0.22  0.00
  YS02001790YS02001791    1.00   0.00  0.00  0.00  0.89  0.11  0.00  0.00  0.02  0.00
  YS02001791YS02001793    1.00   0.00  0.00  0.00  0.90  0.10  0.00  0.00  0.01  0.00
  YS02001910YS02001907    1.00   0.00  0.00  0.00  0.99  0.00  0.00  0.01  0.13  0.00
  YS02001786YS02001788    1.00   0.00  0.00  0.00  0.95  0.05  0.00  0.00  0.00  0.00
  YS02001915YS02001910    1.00   0.00  0.00  0.00  0.99  0.01  0.00  0.00  0.18  0.00
  YS02001918YS02001915    1.00   0.00  0.00  0.00  0.99  0.01  0.00  0.00  0.58  0.00
  YS02001923YS02001920    1.00   0.00  0.00  0.00  1.00  0.00  0.00  0.00  0.85  0.00
  YS02001926YS02001923    1.00   0.00  0.02  0.00  0.16  0.00  0.81  0.00  0.00  0.00
  YS02001929YS02001926    1.00   0.00  0.04  0.00  0.96  0.00  0.00  0.00  0.78  0.00
  YS02001920YS02001918    1.00   0.00  0.00  0.00  1.00  0.00  0.00  0.00  0.00  0.00
  YS02001629YS02163301    1.00   0.05  0.00  0.00  0.94  0.00  0.00  0.00  0.00  0.00
  YS02001619YS02001622    1.00   0.04  0.00  0.00  0.96  0.00  0.00  0.00  0.00  0.00
  YS02001622YS02001625    1.00   0.04  0.00  0.00  0.96  0.00  0.00  0.00  0.07  0.00
  YS02001625YS02001629    1.00   0.04  0.03  0.00  0.91  0.00  0.02  0.00  0.00  0.00
  YS02163301YS02001633    1.00   0.00  0.05  0.00  0.95  0.00  0.00  0.00  0.00  0.00
  YS02163601YS02164001    1.00   0.00  0.03  0.00  0.97  0.00  0.00  0.00  0.00  0.00
  YS02164001YS02001641    1.00   0.00  0.02  0.00  0.97  0.00  0.00  0.00  0.06  0.00
  YS02001641YS02001644    1.00   0.00  0.00  0.00  1.00  0.00  0.00  0.00  0.00  0.00
  YS02001647YS02001649    1.00   0.00  0.06  0.00  0.94  0.00  0.00  0.00  0.01  0.00
  YS02006553YS02006556    1.00   0.00  0.00  0.00  1.00  0.00  0.00  0.00  0.03  0.00
  YS02006556YS02006558    1.00   0.00  0.00  0.00  1.00  0.00  0.00  0.00  0.00  0.00
  YSB6556YSB1171          1.00   0.01  0.03  0.00  0.96  0.00  0.00  0.00  0.00  0.00
  YS02001907YS02006553    1.00   0.00  0.01  0.00  0.99  0.00  0.00  0.00  0.00  0.00
  YS02006558YS02006561    1.00   0.07  0.00  0.00  0.21  0.72  0.00  0.00  0.50  0.00
  YS02001633YS02163601    1.00   0.00  0.00  0.00  1.00  0.00  0.00  0.00  0.16  0.00
  YS02001644YS02001647    1.00   0.00  0.06  0.00  0.94  0.00  0.00  0.00  0.00  0.00
  YS02001745YS02001748    1.00   0.00  0.00  0.00  0.86  0.01  0.00  0.13  0.06  0.00
  YS02001748YS02001751    1.00   0.00  0.00  0.00  0.96  0.04  0.00  0.00  0.15  0.00
  YS02001751YS02001754    1.00   0.00  0.00  0.00  0.92  0.00  0.00  0.08  0.02  0.00
  YS02001754YS02001757    1.00   0.00  0.00  0.00  1.00  0.00  0.00  0.00  0.20  0.00
  YS02001882YS02001884    1.00   0.05  0.00  0.00  0.95  0.00  0.00  0.00  0.00  0.00
  YS02001884YS02001887    1.00   0.02  0.02  0.00  0.96  0.00  0.00  0.00  0.00  0.00
  YS02001890YS02001895    1.00   0.00  0.06  0.00  0.94  0.00  0.00  0.00  0.00  0.00
  YS02001895YS02001898    1.00   0.06  0.00  0.00  0.93  0.00  0.01  0.00  0.00  0.00
  YS02001898YS02001901    1.00   0.06  0.00  0.00  0.94  0.00  0.00  0.00  0.02  0.00
  YS02001901YS02001904    1.00   0.06  0.00  0.00  0.94  0.00  0.00  0.00  0.00  0.00
  YS02001904YS02001907    1.00   0.00  0.06  0.00  0.94  0.00  0.00  0.00  0.00  0.00
  YS02001887YS02001890    1.00   0.00  0.00  0.00  0.99  0.00  0.01  0.00  0.00  0.00
  YS02001652YS02001649    1.00   0.00  0.00  0.00  1.00  0.00  0.00  0.00  0.18  0.00
  YS02001655YS02001652    1.00   0.00  0.00  0.00  0.92  0.00  0.00  0.07  0.02  0.00
  YS02001658YS02001655    1.00   0.00  0.05  0.00  0.91  0.04  0.00  0.00  0.11  0.00
  YS02001661YS02001658    1.00   0.05  0.00  0.00  0.86  0.10  0.00  0.00  0.08  0.00
  YS02001664YS02001661    1.00   0.04  0.00  0.00  0.82  0.14  0.00  0.00  0.24  0.00
  YSB1154YSB6556          1.00   0.04  0.00  0.00  0.96  0.00  0.00  0.00  0.02  0.00
  YSB1174YSB1171          1.00   0.02  0.01  0.00  0.97  0.00  0.00  0.00  0.00  0.00
  YSB1171HS02004479       1.00   0.01  0.00  0.00  0.98  0.00  0.00  0.00  0.11  0.00
  HS02004881HS02006253    1.00   0.02  0.00  0.00  0.90  0.00  0.00  0.08  0.75  0.00
  YS02001793JiankangQianchi    1.00   0.00  0.00  0.00  1.00  0.00  0.00  0.00  0.24  0.00
  YS02001757CaochengTiaoxuchi    1.00   0.00  0.09  0.00  0.83  0.08  0.00  0.00  0.00  0.00
  WSF200WS02003060        1.00   0.00  0.11  0.00  0.89  0.00  0.00  0.00  0.02  0.00
  1                       1.00   0.00  0.00  0.00  0.00  1.00  0.00  0.00  0.07  0.00
  2                       1.00   0.11  0.00  0.00  0.00  0.89  0.00  0.00  0.00  0.00
  3                       1.00   0.84  0.00  0.00  0.00  0.16  0.00  0.00  0.00  0.00
  4                       1.00   1.00  0.00  0.00  0.00  0.00  0.00  0.00  0.00  0.00
  
  
  *************************
  Conduit Surcharge Summary
  *************************
  
  ----------------------------------------------------------------------------
                                                           Hours        Hours 
                         --------- Hours Full --------   Above Full   Capacity
  Conduit                Both Ends  Upstream  Dnstream   Normal Flow   Limited
  ----------------------------------------------------------------------------
  WS02006229WS02006228        1.71      1.81      1.71      5.80         1.71
  WS02006256WS02006235        5.83      5.83      6.05      0.01         0.01
  WS02006253WS02006251        0.01      0.01      0.69      0.01         0.01
  WS02006252WS02006251        5.86      5.86      5.88      5.88         0.01
  WS02006251WS02006249        0.01      0.08      0.01      5.86         0.01
  WS02006249WS02006248        0.01      0.01      0.01      5.88         0.01
  WS02006247WS02006245        0.01      0.16      0.01      5.88         0.01
  WS02006245WS02006243        0.01      0.01      0.44      0.11         0.01
  WS02006243WS02006242        0.71      0.71      1.28      0.01         0.01
  WS02006242WS02006240        1.03      1.03      1.69      5.83         0.01
  WS02006240WS02006239        1.10      1.10      1.11      4.64         0.01
  WS02006239WS02006238        1.24      1.26      1.25      4.67         0.15
  WS02006238WS02006235        1.21      1.21      1.37      0.01         0.01
  WS02006235WS02006234        1.04      1.04      1.17      5.83         0.01
  WS02006234WS02006232        1.13      1.13      1.51      0.01         0.01
  WS02006232WS02006231        0.72      0.72      1.51      0.01         0.01
  WS02006231WS02006230        0.45      0.45      0.82      5.81         0.01
  WS02006230WS02006229        5.79      5.79      5.79      5.81         5.79
  WS02006228WS02006109        1.76      2.23      1.76      5.81         1.76
  WS02006112WS02006115        0.01      0.01      1.19      0.01         0.01
  WS02006111WS02006112        0.01      0.01      5.77      0.01         0.01
  WS02006110WS02006113        0.01      0.01      1.94      0.01         0.01
  WS02006109WS02006110        1.12      1.12      2.23      1.13         0.01
  WS02004406WS02004407        0.01      0.01      0.28      0.01         0.01
  WS02004405WS02004406        0.28      0.44      0.28      1.15         0.28
  WS02004404WS02004405        0.44      0.60      0.44      5.93         0.44
  WS02004403WS02004404        0.01      0.01      0.60      0.01         0.01
  WS02003072WS02003073        0.01      0.01      0.01      5.70         0.01
  HS02004480HS02004478        0.01      0.01      0.01      0.25         0.01
  YS02001759YS02001757        5.66      5.66      5.74      0.01         0.01
  YS02001762YS02001759        5.64      5.64      5.66      0.01         0.01
  YS02001765YS02001762        5.60      5.60      5.64      0.01         0.01
  YS02001770YS02001767        5.45      5.46      5.47      0.45         1.05
  YS02001774YS02001770        5.40      5.40      5.63      0.01         0.01
  YS02001779YS02001774        5.27      5.27      5.63      0.01         0.01
  YS02001649YS02001757        5.64      5.64      5.74      0.01         0.01
  YS02001767YS02001765        5.47      5.47      5.60      0.01         0.01
  YS02006561YS02001783        0.67      0.67      1.47      0.01         0.01
  YS02001783YS02001784        1.47      1.47      1.54      1.05         1.04
  YS02001784YS02001785        1.47      1.54      1.47      2.08         1.47
  YS02001788YS02001790        1.46      1.46      5.75      0.01         0.01
  YS02001790YS02001791        5.75      5.75      5.77      0.50         0.49
  YS02001791YS02001793        5.77      5.77      5.83      0.01         0.01
  YS02001910YS02001907        1.01      1.01      1.52      0.01         0.01
  YS02001786YS02001788        1.46      1.47      1.46      1.66         1.45
  YS02001915YS02001910        0.79      0.79      1.01      0.01         0.01
  YS02001918YS02001915        0.53      0.53      0.79      0.01         0.01
  YS02001923YS02001920        0.32      0.32      0.57      0.01         0.01
  YS02001920YS02001918        0.53      0.53      0.57      0.01         0.01
  YS02001629YS02163301        5.40      5.40      5.49      0.01         0.01
  YS02001619YS02001622        5.12      5.12      5.16      0.01         0.01
  YS02001622YS02001625        5.16      5.16      5.36      0.01         0.01
  YS02001625YS02001629        5.13      5.13      5.36      0.01         0.01
  YS02163301YS02001633        5.49      5.49      5.61      0.01         0.01
  YS02163601YS02164001        5.60      5.60      5.64      0.01         0.01
  YS02164001YS02001641        5.60      5.60      5.61      0.01         0.03
  YS02001641YS02001644        5.61      5.61      5.62      1.20         1.47
  YS02001647YS02001649        5.33      5.33      5.64      0.01         0.01
  YS02006553YS02006556        1.24      1.24      1.59      0.01         0.01
  YS02006556YS02006558        1.37      1.37      1.66      0.01         0.01
  YS02001907YS02006553        2.11      2.11      2.32      0.01         0.01
  YS02006558YS02006561        0.90      1.20      0.90      1.93         0.90
  YS02001633YS02163601        5.60      5.60      5.64      0.01         0.01
  YS02001644YS02001647        5.33      5.33      5.62      0.01         0.01
  YS02001745YS02001748        0.01      0.01      4.18      0.01         0.01
  YS02001748YS02001751        4.56      4.56      5.10      0.01         0.01
  YS02001751YS02001754        5.10      5.10      5.28      0.01         0.01
  YS02001754YS02001757        5.32      5.32      5.74      0.01         0.01
  YS02001882YS02001884        0.80      0.80      0.84      0.01         0.01
  YS02001884YS02001887        0.90      0.90      0.93      0.01         0.01
  YS02001890YS02001895        0.77      0.77      1.03      0.01         0.01
  YS02001895YS02001898        0.76      0.76      0.77      0.01         0.01
  YS02001898YS02001901        0.78      0.78      0.89      0.01         0.01
  YS02001901YS02001904        0.87      0.87      0.89      0.01         0.01
  YS02001904YS02001907        0.87      0.87      1.60      0.01         0.01
  YS02001887YS02001890        0.96      0.96      0.99      0.01         0.01
  YS02001652YS02001649        5.34      5.34      5.64      0.01         0.01
  YS02001655YS02001652        5.14      5.14      5.31      0.01         0.01
  YS02001658YS02001655        4.27      4.27      5.14      0.01         0.01
  YS02001661YS02001658        0.18      0.18      4.27      0.01         0.01
  YS02001664YS02001661        0.01      0.01      0.86      0.01         0.01
  YS02001793JiankangQianchi        5.81      5.81      7.82      0.01         0.01
  YS02001757CaochengTiaoxuchi        4.58      4.58      5.74      0.01         0.01
  
  
  ***************
  Pumping Summary
  ***************
  
  ---------------------------------------------------------------------------------------------------------
                                                  Min       Avg       Max     Total     Power    % Time Off
                        Percent   Number of      Flow      Flow      Flow    Volume     Usage    Pump Curve
  Pump                 Utilized   Start-Ups       LPS       LPS       LPS  10^6 ltr     Kw-hr    Low   High
  ---------------------------------------------------------------------------------------------------------
  CC-Pump-1               75.81           1      0.00    197.87    200.00     4.241      8.70    0.0   12.1
  CC-Pump-2               75.81           1      0.00    197.87    200.00     4.241      8.70    0.0   12.1
  JK-Pump-1                0.00           0      0.00      0.00      0.00     0.000      0.00    0.0    0.0
  JK-Pump-2                0.00           0      0.00      0.00      0.00     0.000      0.00    0.0    0.0
  XR-Pump-1              100.00           1      0.00     95.00     95.00     2.679     27.24    0.0    0.0
  XR-Pump-2              100.00           1      0.00     95.00     95.00     2.679     27.24    0.0    0.0
  XR-Pump-3              100.00           1      0.00     95.00     95.00     2.679     27.24    0.0    0.0
  XR-Pump-4                0.00           0      0.00      0.00      0.00     0.000      0.00    0.0    0.0
  

  Analysis begun on:  Fri Dec 17 21:10:14 2021
  Analysis ended on:  Fri Dec 17 21:10:16 2021
  Total elapsed time: 00:00:02