
  EPA STORM WATER MANAGEMENT MODEL - VERSION 5.1 (Build 5.3.0.dev0)
  --------------------------------------------------------------

  WARNING 04: minimum elevation drop used for Conduit WS02004404WS02004405
  WARNING 03: negative offset ignored for Link YS02001904YS02001907
  
  *********************************************************
  NOTE: The summary statistics displayed in this report are
  based on results found at every computational time step,  
  not just on results from each reporting time step.
  *********************************************************
  
  ****************
  Analysis Options
  ****************
  Flow Units ............... LPS
  Process Models:
    Rainfall/Runoff ........ YES
    RDII ................... NO
    Snowmelt ............... NO
    Groundwater ............ NO
    Flow Routing ........... YES
    Ponding Allowed ........ NO
    Water Quality .......... NO
  Infiltration Method ...... HORTON
  Flow Routing Method ...... DYNWAVE
  Surcharge Method ......... EXTRAN
  Starting Date ............ 08/28/2015 08:00:00
  Ending Date .............. 08/28/2015 15:50:00
  Antecedent Dry Days ...... 8.0
  Report Time Step ......... 00:01:00
  Wet Time Step ............ 00:01:00
  Dry Time Step ............ 00:01:00
  Routing Time Step ........ 5.00 sec
  Variable Time Step ....... YES
  Maximum Trials ........... 8
  Number of Threads ........ 4
  Head Tolerance ........... 0.001500 m
  
  
  **************************        Volume         Depth
  Runoff Quantity Continuity     hectare-m            mm
  **************************     ---------       -------
  Total Precipitation ......         5.151        11.277
  Evaporation Loss .........         0.000         0.000
  Infiltration Loss ........         1.323         2.897
  Surface Runoff ...........         2.817         6.167
  Final Storage ............         1.011         2.215
  Continuity Error (%) .....        -0.015
  
  
  **************************        Volume        Volume
  Flow Routing Continuity        hectare-m      10^6 ltr
  **************************     ---------     ---------
  Dry Weather Inflow .......         0.616         6.165
  Wet Weather Inflow .......         2.816        28.156
  Groundwater Inflow .......         0.000         0.000
  RDII Inflow ..............         0.000         0.000
  External Inflow ..........         0.102         1.024
  External Outflow .........         1.644        16.444
  Flooding Loss ............         1.389        13.893
  Evaporation Loss .........         0.000         0.000
  Exfiltration Loss ........         0.000         0.000
  Initial Stored Volume ....         0.076         0.761
  Final Stored Volume ......         0.636         6.359
  Continuity Error (%) .....        -1.636
  
  
  *************************
  Highest Continuity Errors
  *************************
  Node HS02004842 (17.03%)
  Node YS02001884 (10.41%)
  Node JK-storage (-6.47%)
  Node YSB1171 (3.39%)
  Node HS02004817 (3.15%)
  
  
  ***************************
  Time-Step Critical Elements
  ***************************
  Link WS02006252WS02006251 (52.84%)
  Link 3 (41.04%)
  Link WS02006238WS02006235 (1.51%)
  
  
  ********************************
  Highest Flow Instability Indexes
  ********************************
  Link WS02006113WS02006111 (42)
  Link YS02163301YS02001633 (36)
  Link YS02001629YS02163301 (36)
  Link YS02001619YS02001622 (35)
  Link YS02163601YS02164001 (35)
  
  
  *************************
  Routing Time Step Summary
  *************************
  Minimum Time Step           :     0.15 sec
  Average Time Step           :     0.79 sec
  Maximum Time Step           :     5.00 sec
  Percent in Steady State     :    -0.00
  Average Iterations per Step :     4.62
  Percent Not Converging      :    23.08
  
  
  ***************************
  Subcatchment Runoff Summary
  ***************************
  
  ------------------------------------------------------------------------------------------------------------------------------
                            Total      Total      Total      Total     Imperv       Perv      Total       Total     Peak  Runoff
                           Precip      Runon       Evap      Infil     Runoff     Runoff     Runoff      Runoff   Runoff   Coeff
  Subcatchment                 mm         mm         mm         mm         mm         mm         mm    10^6 ltr      LPS
  ------------------------------------------------------------------------------------------------------------------------------
  sub0                      11.28       0.00       0.00       0.79       9.22       0.00       9.22        0.01     1.44   0.818
  sub1                      11.28       0.00       0.00       1.24       8.78       0.00       8.78        0.06    10.11   0.778
  sub2                      11.28       0.00       0.00       4.17       6.20       0.00       6.20        0.06     9.79   0.549
  sub3                      11.28       0.00       0.00       4.17       6.16       0.00       6.16        0.14    22.44   0.546
  sub4                      11.28       0.00       0.00       1.24       8.63       0.00       8.63        0.18    27.35   0.765
  sub5                      11.28       0.00       0.00       0.79       9.17       0.00       9.17        0.10    18.00   0.813
  sub7                      11.28       0.00       0.00       1.01       9.01       0.00       9.01        0.03     5.34   0.799
  sub8                      11.28       0.00       0.00       1.01       9.00       0.00       9.00        0.06    10.08   0.798
  sub9                      11.28       0.00       0.00       1.01       8.99       0.00       8.99        0.04     7.58   0.798
  sub10                     11.28       0.00       0.00       0.90       9.08       0.00       9.08        0.10    17.43   0.805
  sub11                     11.28       0.00       0.00       0.90       9.10       0.00       9.10        0.11    18.56   0.807
  sub12                     11.28       0.00       0.00       1.47       8.62       0.00       8.62        0.08    13.79   0.765
  sub14                     11.28       0.00       0.00       1.01       8.99       0.00       8.99        0.09    14.98   0.797
  sub15                     11.28       0.00       0.00       3.38       6.91       0.00       6.91        0.12    20.76   0.613
  sub16                     11.28       0.00       0.00       3.72       6.64       0.00       6.64        0.07    12.34   0.589
  sub17                     11.28       0.00       0.00       3.61       6.73       0.00       6.73        0.06    10.18   0.597
  sub22                     11.28       0.00       0.00       4.85       5.64       0.00       5.64        0.36    62.58   0.500
  sub23                     11.28       0.00       0.00       4.17       6.23       0.00       6.23        0.30    52.29   0.553
  sub60                     11.28       0.00       0.00       1.35       7.08       0.00       7.08        2.14   214.31   0.627
  sub61                     11.28       0.00       0.00       1.92       7.22       0.00       7.22        2.23   246.69   0.640
  sub62                     11.28       0.00       0.00       0.90       7.84       0.00       7.84        2.41   259.66   0.695
  sub63                     11.28       0.00       0.00       3.27       6.33       0.00       6.33        1.92   219.77   0.561
  sub64                     11.28       0.00       0.00       1.69       6.79       0.00       6.79        2.06   204.52   0.602
  sub65                     11.28       0.00       0.00       1.47       6.90       0.00       6.90        2.12   208.50   0.612
  sub66                     11.28       0.00       0.00       3.27       5.83       0.00       5.83        1.79   183.42   0.517
  sub67                     11.28       0.00       0.00       0.90       8.30       0.00       8.30        2.56   301.39   0.736
  sub68                     11.28       0.00       0.00       1.58       7.60       0.00       7.60        2.34   264.96   0.674
  sub69                     11.28       0.00       0.00       1.69       7.90       0.00       7.90        1.85   237.25   0.701
  sub70                     11.28       8.07       0.00       6.54      10.49       0.03      10.52        2.41   252.63   0.544
  sub71                     11.28       0.00       0.00       0.90       7.63       0.00       7.63        1.80   186.96   0.676
  sub72                     11.28       0.00       0.00       0.79       6.02       0.00       6.02        1.23   100.40   0.534
  sub73                     11.28      10.24       0.00       7.30      11.40       0.02      11.42        2.68   238.40   0.531
  sub74                     11.28       0.00       0.00       8.46       2.36       0.00       2.36        0.94   126.51   0.209
  
  
  ******************
  Node Depth Summary
  ******************
  
  ---------------------------------------------------------------------------------
                                 Average  Maximum  Maximum  Time of Max    Reported
                                   Depth    Depth      HGL   Occurrence   Max Depth
  Node                 Type       Meters   Meters   Meters  days hr:min      Meters
  ---------------------------------------------------------------------------------
  WS02001211           JUNCTION     0.59     0.74     5.58     0  04:32        0.74
  WS02001212           JUNCTION     0.33     0.45     5.51     0  02:38        0.45
  WS02001213           JUNCTION     0.57     0.71     5.47     0  02:37        0.71
  WS02003069           JUNCTION     0.40     0.56     5.14     0  02:37        0.56
  WS02003072           JUNCTION     0.47     0.62     4.99     0  02:38        0.62
  WS02003073           JUNCTION     0.28     0.38     4.44     0  02:38        0.38
  WS02003060           JUNCTION     0.36     0.49     5.42     0  02:36        0.49
  WS02003066           JUNCTION     0.23     0.31     5.86     0  02:24        0.31
  WS02003059           JUNCTION     0.63     0.77     5.46     0  02:38        0.77
  WS02003067           JUNCTION     0.57     0.72     6.04     0  02:23        0.72
  WS02004401           JUNCTION     0.67     0.90     6.90     0  02:21        0.90
  WS02004402           JUNCTION     0.70     0.92     6.88     0  02:21        0.92
  WS02004403           JUNCTION     0.72     0.93     6.86     0  02:21        0.93
  WS02004404           JUNCTION     0.80     1.00     6.85     0  02:21        1.00
  WS02004406           JUNCTION     0.80     0.99     6.82     0  02:22        0.99
  WS02004409           JUNCTION     0.49     0.70     6.47     0  02:22        0.70
  WS02004410           JUNCTION     0.51     0.72     6.44     0  02:22        0.72
  WS02004411           JUNCTION     0.52     0.72     6.40     0  02:23        0.72
  WS02004412           JUNCTION     0.54     0.73     6.37     0  02:23        0.73
  WS02004413           JUNCTION     0.70     0.88     6.35     0  02:23        0.88
  WS02004405           JUNCTION     0.79     0.99     6.84     0  02:21        0.99
  WS02006109           JUNCTION     0.75     1.02     7.64     0  02:18        1.02
  WS02006110           JUNCTION     0.75     0.96     7.54     0  02:17        0.95
  WS02006111           JUNCTION     0.22     0.30     7.01     0  02:20        0.30
  WS02006112           JUNCTION     0.84     1.20     7.08     0  02:21        1.12
  WS02006113           JUNCTION     0.34     0.48     7.37     0  02:18        0.48
  WS02006115           JUNCTION     0.56     0.80     6.94     0  02:20        0.80
  WS02006116           JUNCTION     0.65     0.88     6.92     0  02:21        0.88
  WS02006230           JUNCTION     0.72     1.08     7.82     0  02:18        1.08
  WS02006231           JUNCTION     0.48     0.74     7.87     0  02:20        0.74
  WS02006232           JUNCTION     0.61     0.87     7.91     0  02:20        0.87
  WS02006234           JUNCTION     0.52     0.80     7.96     0  02:20        0.80
  WS02006235           JUNCTION     0.55     0.84     8.00     0  02:20        0.83
  WS02006238           JUNCTION     0.58     0.86     8.01     0  02:19        0.86
  WS02006240           JUNCTION     0.47     0.77     8.06     0  02:20        0.77
  WS02006242           JUNCTION     0.52     0.83     8.10     0  02:20        0.83
  WS02006243           JUNCTION     0.39     0.72     8.14     0  02:20        0.72
  WS02006245           JUNCTION     0.37     0.69     8.18     0  02:20        0.69
  WS02006247           JUNCTION     0.39     0.70     8.20     0  02:20        0.70
  WS02006248           JUNCTION     0.34     0.63     8.22     0  02:20        0.63
  WS02006249           JUNCTION     0.37     0.64     8.24     0  02:20        0.64
  WS02006239           JUNCTION     0.53     0.83     8.03     0  02:20        0.82
  WS02006251           JUNCTION     0.35     0.68     8.35     0  02:20        0.67
  WS02006252           JUNCTION     0.31     0.59     8.83     0  02:19        0.59
  WS02006253           JUNCTION     0.38     0.70     8.35     0  02:20        0.70
  WS02006256           JUNCTION     1.03     1.21     8.14     0  02:40        1.21
  WS02004138           JUNCTION     0.12     0.19     7.44     0  04:30        0.19
  WS02004407           JUNCTION     0.22     0.31     6.62     0  02:22        0.31
  WS02006228           JUNCTION     0.75     1.08     7.73     0  02:16        1.07
  WS02006229           JUNCTION     0.73     1.07     7.77     0  02:18        1.07
  WS02006280           JUNCTION     0.07     0.16     8.44     0  02:09        0.16
  WS02006284           JUNCTION     0.37     0.51     8.91     0  02:09        0.51
  WS02006287           JUNCTION     0.10     0.24     9.20     0  02:09        0.24
  WSF200               JUNCTION     0.22     0.32     5.56     0  02:32        0.32
  HS02004901           JUNCTION     0.13     0.25    10.07     0  02:07        0.25
  HS02004881           JUNCTION     0.01     0.03     9.06     0  02:08        0.03
  HS02004876           JUNCTION     0.05     0.11     9.14     0  02:05        0.11
  HS02004870           JUNCTION     0.02     0.05     9.34     0  02:09        0.05
  HS02004862           JUNCTION     0.02     0.06     9.44     0  02:09        0.06
  HS02004856           JUNCTION     0.08     0.11     9.54     0  02:09        0.11
  HS02004852           JUNCTION     0.01     0.04     9.55     0  02:09        0.04
  HS02004848           JUNCTION     0.01     0.04     9.64     0  02:09        0.04
  HS02004842           JUNCTION     0.33     0.37     9.64     0  02:09        0.37
  HS02004837           JUNCTION     0.03     0.06     9.64     0  02:09        0.06
  HS02004830           JUNCTION     0.04     0.07     9.54     0  02:09        0.07
  HS02004824           JUNCTION     0.02     0.05     9.45     0  02:10        0.05
  HS02004817           JUNCTION     0.44     0.56     9.40     0  02:09        0.56
  HS02004807           JUNCTION     0.13     0.23     9.40     0  02:09        0.23
  HS02004802           JUNCTION     0.17     0.26     9.39     0  02:09        0.26
  HS02004799           JUNCTION     0.13     0.28     9.49     0  02:07        0.28
  HS02004792           JUNCTION     0.04     0.11     9.63     0  02:07        0.11
  HS02004788           JUNCTION     0.03     0.08     9.98     0  02:08        0.08
  HS02004785           JUNCTION     0.05     0.15    10.05     0  02:08        0.15
  HS02004777           JUNCTION     0.15     0.27    10.06     0  02:07        0.27
  HS02004770           JUNCTION     0.12     0.24    10.07     0  02:07        0.24
  HS02004480           JUNCTION     0.09     0.22     9.46     0  02:07        0.22
  HS02004479           JUNCTION     0.12     0.26     9.46     0  02:08        0.26
  HS02004478           JUNCTION     0.07     0.15     9.38     0  02:08        0.15
  YS02001745           JUNCTION     0.69     0.88     8.40     0  03:10        0.88
  YS02001748           JUNCTION     1.08     2.27     9.35     0  02:26        1.32
  YS02001751           JUNCTION     1.26     2.20     9.08     0  02:14        1.68
  YS02001754           JUNCTION     1.52     2.14     8.75     0  02:26        1.80
  YS02001762           JUNCTION     1.72     2.09     8.49     0  02:26        2.01
  YS02001765           JUNCTION     1.67     2.01     8.46     0  02:26        1.96
  YS02001767           JUNCTION     1.64     1.96     8.45     0  02:26        1.92
  YS02001770           JUNCTION     1.63     1.95     8.44     0  02:26        1.90
  YS02001774           JUNCTION     1.70     2.01     8.44     0  02:26        1.96
  YS02001779           JUNCTION     1.45     1.68     8.37     0  02:20        1.68
  YS02001882           JUNCTION     0.47     1.20     7.92     0  02:55        1.20
  YS02001884           JUNCTION     0.56     1.30     7.91     0  02:55        1.29
  YS02001759           JUNCTION     1.75     2.09     8.45     0  02:26        2.05
  YS02001887           JUNCTION     0.64     1.38     7.92     0  02:55        1.38
  YS02001890           JUNCTION     0.67     1.40     7.91     0  02:55        1.39
  YS02001898           JUNCTION     0.44     1.16     7.89     0  02:54        1.16
  YS02001901           JUNCTION     0.56     1.28     7.89     0  02:56        1.28
  YS02001904           JUNCTION     0.54     1.25     7.88     0  02:58        1.24
  YS02001907           JUNCTION     0.87     1.59     7.88     0  02:58        1.58
  YS02001910           JUNCTION     0.66     1.38     7.88     0  02:58        1.37
  YS02001915           JUNCTION     0.45     1.16     7.88     0  02:57        1.16
  YS02001918           JUNCTION     0.21     0.82     7.88     0  02:57        0.82
  YS02001619           JUNCTION     1.23     1.61     8.54     0  02:21        1.48
  YS02001629           JUNCTION     1.59     1.85     8.40     0  02:22        1.85
  YS02001641           JUNCTION     1.69     1.97     8.40     0  02:29        1.94
  YS02001644           JUNCTION     1.69     1.92     8.35     0  02:26        1.92
  YS02001652           JUNCTION     1.53     2.16     8.76     0  02:43        1.98
  YS02001655           JUNCTION     1.29     2.20     9.05     0  02:14        1.93
  YS02001920           JUNCTION     0.30     0.89     7.90     0  02:57        0.89
  YS02001923           JUNCTION     0.15     0.63     7.89     0  02:58        0.63
  YS02001926           JUNCTION     0.21     0.44     7.88     0  02:57        0.44
  YS02001929           JUNCTION     0.10     0.17     7.87     0  02:57        0.17
  YS02001658           JUNCTION     1.02     2.30     9.44     0  02:20        2.00
  YS02001661           JUNCTION     0.80     2.46     9.86     0  02:44        2.02
  YS02001664           JUNCTION     0.35     0.57     8.49     0  02:42        0.56
  YS02001622           JUNCTION     1.25     1.62     8.52     0  02:23        1.50
  YS02001633           JUNCTION     1.68     1.98     8.44     0  02:29        1.95
  YS02001649           JUNCTION     1.73     2.05     8.44     0  02:23        2.05
  YS02001757           JUNCTION     1.85     2.21     8.47     0  02:26        2.16
  YS02001895           JUNCTION     0.43     1.15     7.90     0  02:54        1.15
  YS02001625           JUNCTION     1.54     1.78     8.38     0  02:22        1.78
  YS02163301           JUNCTION     1.62     1.92     8.44     0  02:29        1.88
  YS02163601           JUNCTION     1.73     2.04     8.44     0  02:29        2.00
  YS02164001           JUNCTION     1.67     1.97     8.43     0  02:29        1.93
  YS02001647           JUNCTION     1.52     1.80     8.41     0  03:18        1.79
  YSB1154              JUNCTION     0.26     0.41     9.47     0  02:08        0.41
  YSB6556              JUNCTION     0.16     0.30     9.47     0  02:07        0.30
  YSB1174              JUNCTION     0.22     0.36     9.47     0  02:08        0.36
  YSB1171              JUNCTION     0.41     0.56     9.47     0  02:08        0.56
  YS02006553           JUNCTION     0.87     1.58     7.87     0  02:58        1.58
  YS02006561           JUNCTION     0.27     0.81     7.47     0  02:57        0.80
  YS02006556           JUNCTION     0.84     1.54     7.85     0  02:58        1.53
  YS02006558           JUNCTION     0.88     1.57     7.84     0  02:57        1.56
  YS02001783           JUNCTION     0.51     1.53     7.67     0  02:16        1.22
  YS02001784           JUNCTION     0.54     2.28     8.35     0  02:16        1.20
  YS02001786           JUNCTION     0.50     2.21     8.24     0  02:16        1.09
  YS02001788           JUNCTION     0.45     1.81     7.79     0  02:16        1.00
  YS02001790           JUNCTION     0.60     1.96     7.60     0  02:15        1.21
  YS02001791           JUNCTION     0.61     1.74     7.21     0  02:15        1.24
  YS02001793           JUNCTION     0.89     2.81     7.64     0  02:13        1.79
  WS02004139           JUNCTION     0.53     0.69     5.60     0  04:32        0.69
  WSC                  OUTFALL      0.28     0.38     1.05     0  02:39        0.38
  3                    OUTFALL      0.09     0.21     6.21     0  02:40        0.21
  4                    OUTFALL      0.01     0.14     7.14     0  02:20        0.14
  5                    OUTFALL      0.00     0.00     5.00     0  00:00        0.00
  JK-storage           STORAGE      3.12     5.80     6.60     0  02:16        5.80
  CC-storage           STORAGE      1.08     1.39     8.39     0  03:11        1.39
  XR-storage           STORAGE      7.61     7.72     5.72     0  01:44        7.72
  
  
  *******************
  Node Inflow Summary
  *******************
  
  -------------------------------------------------------------------------------------------------
                                  Maximum  Maximum                  Lateral       Total        Flow
                                  Lateral    Total  Time of Max      Inflow      Inflow     Balance
                                   Inflow   Inflow   Occurrence      Volume      Volume       Error
  Node                 Type           LPS      LPS  days hr:min    10^6 ltr    10^6 ltr     Percent
  -------------------------------------------------------------------------------------------------
  WS02001211           JUNCTION      7.35   371.80     0  04:30       0.207           5       0.651
  WS02001212           JUNCTION      0.00   363.21     0  04:32           0        4.97       0.358
  WS02001213           JUNCTION      0.00   360.79     0  04:32           0        4.95       0.401
  WS02003069           JUNCTION      0.32   866.89     0  02:37     0.00902        12.9       0.214
  WS02003072           JUNCTION      0.00   866.86     0  02:37           0        12.9       0.265
  WS02003073           JUNCTION      1.82   868.64     0  02:38      0.0514        12.9       0.297
  WS02003060           JUNCTION     16.53   866.58     0  02:36       0.466          13       0.203
  WS02003066           JUNCTION      0.00   590.58     0  02:24           0        7.62       0.060
  WS02003059           JUNCTION      0.00   356.77     0  04:34           0        4.93       0.766
  WS02003067           JUNCTION      0.00   590.51     0  02:23           0        7.63       0.124
  WS02004401           JUNCTION      0.00   592.70     0  02:21           0        7.86       0.277
  WS02004402           JUNCTION      0.00   592.29     0  02:21           0        7.84       0.261
  WS02004403           JUNCTION      0.00   592.06     0  02:21           0        7.82       0.237
  WS02004404           JUNCTION      0.16   592.12     0  02:21     0.00457        7.81       0.178
  WS02004406           JUNCTION      0.00   592.11     0  02:21           0        7.77       0.434
  WS02004409           JUNCTION      0.00   591.83     0  02:22           0        7.73       0.217
  WS02004410           JUNCTION      0.00   591.36     0  02:22           0        7.71       0.244
  WS02004411           JUNCTION      0.00   590.95     0  02:22           0         7.7       0.250
  WS02004412           JUNCTION      0.00   590.76     0  02:23           0        7.68       0.270
  WS02004413           JUNCTION      0.00   590.63     0  02:23           0        7.66       0.398
  WS02004405           JUNCTION      0.04   592.17     0  02:21     0.00107        7.79       0.266
  WS02006109           JUNCTION      1.23   583.96     0  02:17      0.0347        7.93       0.258
  WS02006110           JUNCTION      0.00   583.98     0  02:17           0        7.91       0.252
  WS02006111           JUNCTION      0.00   611.10     0  02:19           0        7.88       0.057
  WS02006112           JUNCTION     10.18   599.92     0  02:20      0.0577        7.93       0.378
  WS02006113           JUNCTION      0.00   584.98     0  02:17           0        7.89       0.125
  WS02006115           JUNCTION      0.00   607.72     0  02:16           0         7.9       0.259
  WS02006116           JUNCTION      0.00   593.64     0  02:21           0        7.88       0.246
  WS02006230           JUNCTION     10.28   393.51     0  05:12        0.29        6.18       0.223
  WS02006231           JUNCTION      0.00   385.61     0  05:12           0        5.91       0.182
  WS02006232           JUNCTION      0.00   385.63     0  05:12           0        5.92       0.274
  WS02006234           JUNCTION      0.00   387.17     0  05:12           0        5.93       0.135
  WS02006235           JUNCTION      0.00   387.65     0  05:12           0        5.97       0.187
  WS02006238           JUNCTION      0.00   328.65     0  05:50           0         3.9       0.190
  WS02006240           JUNCTION      0.00   332.41     0  05:50           0        3.89       0.304
  WS02006242           JUNCTION      0.00   335.12     0  05:51           0        3.89       0.377
  WS02006243           JUNCTION      0.00   335.11     0  03:21           0        3.88      -0.086
  WS02006245           JUNCTION      0.00   342.85     0  03:20           0        3.89       0.332
  WS02006247           JUNCTION      0.00   349.68     0  03:20           0         3.9       0.183
  WS02006248           JUNCTION      0.00   355.63     0  03:20           0         3.9       0.063
  WS02006249           JUNCTION      0.00   447.42     0  02:20           0        4.09       0.314
  WS02006239           JUNCTION      0.00   330.56     0  05:50           0        3.89       0.242
  WS02006251           JUNCTION      0.08   448.44     0  02:20     0.00217        4.12       0.206
  WS02006252           JUNCTION      0.00   399.96     0  05:10           0        3.77       0.012
  WS02006253           JUNCTION      1.44    57.90     0  02:08     0.00747       0.358       1.124
  WS02006256           JUNCTION      0.00   600.00     0  02:40           0        5.48       0.057
  WS02004138           JUNCTION      0.00   379.94     0  04:30           0        4.82       0.061
  WS02004407           JUNCTION      0.00   591.98     0  02:22           0        7.74       0.097
  WS02006228           JUNCTION      0.00   582.89     0  02:17           0        7.91       0.188
  WS02006229           JUNCTION      0.00   582.41     0  02:17           0        7.92       0.165
  WS02006280           JUNCTION      0.00   274.19     0  02:09           0        1.75       0.004
  WS02006284           JUNCTION      0.10   274.19     0  02:09      0.0027        1.75       0.059
  WS02006287           JUNCTION      0.00   274.08     0  02:09           0        1.75       0.041
  WSF200               JUNCTION      0.00   590.59     0  02:24           0        7.61       0.058
  HS02004901           JUNCTION     12.34    12.34     0  01:36      0.0695      0.0697       2.591
  HS02004881           JUNCTION      5.34    56.59     0  02:08      0.0303       0.326       0.079
  HS02004876           JUNCTION     10.11    51.23     0  02:08      0.0584       0.296       0.182
  HS02004870           JUNCTION     10.08    41.18     0  02:08      0.0575       0.238       0.045
  HS02004862           JUNCTION      9.99    31.21     0  02:08      0.0634        0.18       0.096
  HS02004856           JUNCTION      7.58    21.25     0  02:08      0.0432       0.118       1.231
  HS02004852           JUNCTION      0.00    13.78     0  02:09           0      0.0753       0.072
  HS02004848           JUNCTION     22.44    22.44     0  02:09       0.139       0.139       0.033
  HS02004842           JUNCTION      0.00     8.71     0  02:17           0      0.0763      20.533
  HS02004837           JUNCTION     23.78    32.32     0  02:08       0.279       0.343       0.237
  HS02004830           JUNCTION      0.15    32.46     0  02:09     0.00423       0.333       0.372
  HS02004824           JUNCTION     27.40    59.85     0  02:10       0.181       0.513       0.105
  HS02004817           JUNCTION      0.60    60.44     0  02:10      0.0169       0.529       3.252
  HS02004807           JUNCTION     18.56    78.63     0  02:09       0.106       0.618       0.705
  HS02004802           JUNCTION      0.00    78.69     0  02:10           0       0.615       0.647
  HS02004799           JUNCTION     14.98   164.66     0  02:07      0.0856       0.976       0.270
  HS02004792           JUNCTION     62.86   149.73     0  02:07       0.364       0.891       0.045
  HS02004788           JUNCTION     22.43    86.95     0  02:07       0.166       0.528       0.074
  HS02004785           JUNCTION      0.15    64.59     0  02:07     0.00423       0.363       0.135
  HS02004777           JUNCTION      0.03    64.48     0  02:07    0.000846       0.364       1.448
  HS02004770           JUNCTION     52.29    64.50     0  02:06       0.297       0.365       0.854
  HS02004480           JUNCTION      0.00   195.78     0  02:07           0        1.15       0.098
  HS02004479           JUNCTION      0.00    31.20     0  02:09           0       0.188       0.391
  HS02004478           JUNCTION      0.00   274.07     0  02:08           0        1.75       0.020
  YS02001745           JUNCTION    214.32   423.59     0  02:25        2.14        2.17       0.496
  YS02001748           JUNCTION      0.04   592.36     0  02:26     0.00127        2.16       1.023
  YS02001751           JUNCTION      0.01   370.01     0  02:14     0.00031        2.11       1.131
  YS02001754           JUNCTION      0.26   242.11     0  02:27     0.00733         2.1       1.176
  YS02001762           JUNCTION      0.00   258.31     0  02:32           0        1.73       1.228
  YS02001765           JUNCTION      0.00   257.19     0  02:45           0        1.73       1.419
  YS02001767           JUNCTION      0.54   257.19     0  02:45      0.0151        1.76       2.078
  YS02001770           JUNCTION    259.81   315.96     0  03:14        2.41         2.5       1.273
  YS02001774           JUNCTION      0.00   316.48     0  03:14           0       0.826       3.128
  YS02001779           JUNCTION      0.01   316.86     0  03:14    0.000141       0.795       1.939
  YS02001882           JUNCTION      0.00    17.61     0  02:21           0      0.0183      12.904
  YS02001884           JUNCTION      0.00    42.77     0  02:18           0      0.0556      11.623
  YS02001759           JUNCTION    246.73   501.16     0  02:44        2.23        3.84       0.596
  YS02001887           JUNCTION    301.84   313.42     0  02:19        2.57         2.6       0.311
  YS02001890           JUNCTION      0.00   304.87     0  02:43           0        2.56       0.345
  YS02001898           JUNCTION      0.00   306.94     0  02:43           0        2.54       0.105
  YS02001901           JUNCTION      0.00   306.35     0  02:54           0        2.54       0.259
  YS02001904           JUNCTION      0.00   306.53     0  02:54           0        2.54       0.236
  YS02001907           JUNCTION      0.00   590.05     0  03:03           0        5.63       0.425
  YS02001910           JUNCTION      0.00   323.38     0  03:06           0         3.1       0.363
  YS02001915           JUNCTION    186.98   321.70     0  03:05         1.8         3.1       0.186
  YS02001918           JUNCTION      0.00   160.75     0  03:06           0         1.3       0.134
  YS02001619           JUNCTION    183.42   183.42     0  02:55        1.79        1.79       0.660
  YS02001629           JUNCTION      0.00   182.68     0  02:15           0        1.66       1.687
  YS02001641           JUNCTION      0.00   377.68     0  02:19           0        3.69       0.564
  YS02001644           JUNCTION    204.56   994.11     0  03:09        2.06           8       0.325
  YS02001652           JUNCTION      0.00   278.64     0  02:21           0        1.87       1.242
  YS02001655           JUNCTION      0.15   390.87     0  02:16     0.00434        1.89       1.316
  YS02001920           JUNCTION      2.87   151.29     0  03:02      0.0809        1.31       0.211
  YS02001923           JUNCTION      0.04   114.60     0  03:02     0.00106        1.23       0.047
  YS02001926           JUNCTION      0.05   102.82     0  03:01     0.00147        1.23       0.255
  YS02001929           JUNCTION    100.40   100.40     0  03:01        1.23        1.23       0.039
  YS02001658           JUNCTION      0.00   628.02     0  02:21           0        1.94       1.164
  YS02001661           JUNCTION      0.00   619.99     0  02:42           0        2.66      -0.127
  YS02001664           JUNCTION    219.77   374.61     0  02:42        1.91        2.64       0.238
  YS02001622           JUNCTION      0.00   183.66     0  02:54           0        1.78       1.784
  YS02001633           JUNCTION    208.70   379.30     0  02:19        2.13        3.75       0.855
  YS02001649           JUNCTION      0.00   788.23     0  02:38           0        5.33       0.690
  YS02001757           JUNCTION      0.00  1462.90     0  02:38           0        8.85       1.051
  YS02001895           JUNCTION      0.00   305.50     0  02:43           0        2.55       0.187
  YS02001625           JUNCTION      0.00   183.51     0  02:54           0        1.74       2.271
  YS02163301           JUNCTION      0.00   212.51     0  02:19           0        1.65       1.468
  YS02163601           JUNCTION      0.11   379.09     0  02:19      0.0031        3.71       0.813
  YS02164001           JUNCTION      0.00   378.64     0  02:19           0        3.69       0.536
  YS02001647           JUNCTION      0.00   569.05     0  02:39           0        4.42       0.638
  YSB1154              JUNCTION     18.00    18.00     0  02:07       0.104       0.105       1.400
  YSB6556              JUNCTION      0.00    17.99     0  02:06           0       0.105       1.199
  YSB1174              JUNCTION     13.79    13.79     0  01:35      0.0753      0.0758       1.722
  YSB1171              JUNCTION      0.00    31.24     0  02:07           0       0.187       3.509
  YS02006553           JUNCTION      0.00   589.92     0  03:03           0        5.62       0.270
  YS02006561           JUNCTION      0.00   844.86     0  02:54           0        7.92       0.009
  YS02006556           JUNCTION      0.00   589.98     0  03:03           0        5.62       0.195
  YS02006558           JUNCTION    265.84   844.87     0  02:54        2.36        7.95       0.064
  YS02001783           JUNCTION      0.00   841.86     0  02:57           0        7.92       0.027
  YS02001784           JUNCTION      1.06   842.92     0  02:57      0.0299        7.95       0.043
  YS02001786           JUNCTION      0.06   842.89     0  02:57     0.00159        7.95       0.040
  YS02001788           JUNCTION      0.07   843.00     0  02:57       0.002        7.94       0.024
  YS02001790           JUNCTION      0.15   843.18     0  02:57     0.00437        7.95       0.026
  YS02001791           JUNCTION      0.00   843.07     0  02:57           0        7.94       0.013
  YS02001793           JUNCTION      0.00   843.13     0  02:57           0        7.94       0.004
  WS02004139           JUNCTION      0.32   378.99     0  04:30     0.00905        4.82       0.645
  WSC                  OUTFALL       0.00   868.55     0  02:39           0        12.9       0.000
  3                    OUTFALL       0.00   511.44     0  02:40           0        3.37       0.000
  4                    OUTFALL       0.00   180.37     0  02:20           0       0.173       0.000
  5                    OUTFALL       0.00     0.00     0  00:00           0           0       0.000 ltr
  JK-storage           STORAGE       0.00   939.34     0  02:13           0        8.09      -6.078
  CC-storage           STORAGE       0.00  1463.28     0  02:38           0        7.39       0.379
  XR-storage           STORAGE     549.18   549.18     0  02:55        9.26        9.86      -0.001
  
  
  **********************
  Node Surcharge Summary
  **********************
  
  Surcharging occurs when water rises above the top of the highest conduit.
  ---------------------------------------------------------------------
                                               Max. Height   Min. Depth
                                   Hours       Above Crown    Below Rim
  Node                 Type      Surcharged         Meters       Meters
  ---------------------------------------------------------------------
  WS02004404           JUNCTION        0.01          0.001        2.779
  WS02006109           JUNCTION        1.76          0.201        1.619
  WS02006110           JUNCTION        0.92          0.047        1.803
  WS02006112           JUNCTION        1.10          0.198        1.482
  WS02006231           JUNCTION        0.30          0.035        1.495
  WS02006232           JUNCTION        1.57          0.172        1.308
  WS02006234           JUNCTION        0.68          0.083        1.157
  WS02006235           JUNCTION        0.92          0.125        1.165
  WS02006238           JUNCTION        1.08          0.143        1.287
  WS02006240           JUNCTION        0.30          0.062        1.328
  WS02006242           JUNCTION        0.68          0.105        0.715
  WS02006243           JUNCTION        0.08          0.013        0.757
  WS02006239           JUNCTION        0.60          0.085        1.205
  WS02006252           JUNCTION        1.13          0.192        0.908
  WS02006228           JUNCTION        1.73          0.248        1.952
  YS02001748           JUNCTION        5.25          1.190        0.000
  YS02001751           JUNCTION        5.49          1.200        0.000
  YS02001754           JUNCTION        5.74          1.094        0.056
  YS02001762           JUNCTION        5.96          1.086        0.064
  YS02001765           JUNCTION        5.94          1.011        0.089
  YS02001767           JUNCTION        5.92          0.961        0.069
  YS02001770           JUNCTION        5.90          0.920        0.000
  YS02001774           JUNCTION        5.95          1.014        0.036
  YS02001779           JUNCTION        5.74          0.680        0.000
  YS02001882           JUNCTION        0.48          0.199        0.631
  YS02001884           JUNCTION        0.55          0.238        0.632
  YS02001759           JUNCTION        5.98          1.086        0.124
  YS02001887           JUNCTION        0.71          0.328        0.622
  YS02001890           JUNCTION        0.76          0.353        0.407
  YS02001898           JUNCTION        0.36          0.129        0.611
  YS02001901           JUNCTION        0.64          0.280        0.590
  YS02001904           JUNCTION        0.61          0.247        0.603
  YS02001907           JUNCTION        1.45          0.577        0.373
  YS02001910           JUNCTION        0.82          0.376        0.724
  YS02001915           JUNCTION        0.44          0.164        0.836
  YS02001619           JUNCTION        5.52          0.610        0.000
  YS02001629           JUNCTION        5.54          0.470        0.000
  YS02001641           JUNCTION        5.94          0.968        0.132
  YS02001644           JUNCTION        5.95          0.920        0.000
  YS02001652           JUNCTION        5.76          1.130        0.000
  YS02001655           JUNCTION        5.54          1.200        0.000
  YS02001658           JUNCTION        5.30          1.300        0.000
  YS02001661           JUNCTION        0.21          1.390        0.000
  YS02001622           JUNCTION        5.58          0.620        0.000
  YS02001633           JUNCTION        5.93          0.965        0.095
  YS02001649           JUNCTION        5.96          1.050        0.000
  YS02001757           JUNCTION        6.04          1.210        0.000
  YS02001895           JUNCTION        0.41          0.155        0.595
  YS02001625           JUNCTION        5.78          0.780        0.000
  YS02163301           JUNCTION        5.91          0.921        0.109
  YS02163601           JUNCTION        5.96          1.042        0.038
  YS02164001           JUNCTION        5.94          0.973        0.127
  YS02001647           JUNCTION        5.76          0.799        0.101
  YS02006553           JUNCTION        1.50          0.583        0.607
  YS02006561           JUNCTION        0.01          0.005        1.145
  YS02006556           JUNCTION        1.11          0.496        0.854
  YS02006558           JUNCTION        1.07          0.473        0.927
  YS02001783           JUNCTION        1.22          0.729        0.871
  YS02001784           JUNCTION        1.27          1.481        0.009
  YS02001786           JUNCTION        1.22          1.405        0.025
  YS02001788           JUNCTION        1.21          1.010        0.470
  YS02001790           JUNCTION        2.78          1.157        0.000
  YS02001791           JUNCTION        2.90          0.937        0.983
  YS02001793           JUNCTION        3.16          1.813        0.787
  
  
  *********************
  Node Flooding Summary
  *********************
  
  Flooding refers to all water that overflows a node, whether it ponds or not.
  --------------------------------------------------------------------------
                                                             Total   Maximum
                                 Maximum   Time of Max       Flood    Ponded
                        Hours       Rate    Occurrence      Volume     Depth
  Node                 Flooded       LPS   days hr:min    10^6 ltr    Meters
  --------------------------------------------------------------------------
  YS02001748              0.01    119.87      0  02:27       0.000     0.000
  YS02001751              0.01    144.82      0  02:14       0.000     0.000
  YS02001770              0.01      3.67      0  02:26       0.000     0.000
  YS02001779              2.45    316.84      0  03:14       0.775     0.000
  YS02001619              0.01     37.41      0  02:24       0.000     0.000
  YS02001629              0.01     39.67      0  02:24       0.001     0.000
  YS02001644              3.96    993.50      0  03:09       5.804     0.000
  YS02001652              0.01     18.97      0  02:46       0.000     0.000
  YS02001655              0.01    217.16      0  02:16       0.000     0.000
  YS02001658              0.01    228.46      0  02:23       0.000     0.000
  YS02001661              0.01    167.29      0  02:47       0.001     0.000
  YS02001622              0.01     46.47      0  02:23       0.000     0.000
  YS02001649              0.07     47.84      0  02:47       0.003     0.000
  YS02001757              0.01      6.15      0  02:26       0.000     0.000
  YS02001625              0.57     38.34      0  02:27       0.046     0.000
  YS02001790              0.01    129.22      0  02:15       0.000     0.000
  JK-storage              2.57    794.52      0  03:10       3.141     0.000
  XR-storage              5.74    414.83      0  03:50       4.121     0.000
  
  
  **********************
  Storage Volume Summary
  **********************
  
  --------------------------------------------------------------------------------------------------
                         Average     Avg  Evap Exfil       Maximum     Max    Time of Max    Maximum
                          Volume    Pcnt  Pcnt  Pcnt        Volume    Pcnt     Occurrence    Outflow
  Storage Unit           1000 m3    Full  Loss  Loss       1000 m3    Full    days hr:min        LPS
  --------------------------------------------------------------------------------------------------
  JK-storage               0.157      54     0     0         0.291     100       0  02:16     600.00
  CC-storage               2.999      19     0     0         3.872      25       0  03:11     399.96
  XR-storage               0.913      99     0     0         0.926     100       0  01:44     379.94
  
  
  ***********************
  Outfall Loading Summary
  ***********************
  
  -----------------------------------------------------------
                         Flow       Avg       Max       Total
                         Freq      Flow      Flow      Volume
  Outfall Node           Pcnt       LPS       LPS    10^6 ltr
  -----------------------------------------------------------
  WSC                   99.99    512.91    868.55      12.898
  3                     80.65    193.30    511.44       3.372
  4                     22.15     36.42    180.37       0.173
  5                      0.00      0.00      0.00       0.000
  -----------------------------------------------------------
  System                50.70    742.63   1386.11      16.444
  
  
  ********************
  Link Flow Summary
  ********************
  
  -----------------------------------------------------------------------------
                                 Maximum  Time of Max   Maximum    Max/    Max/
                                  |Flow|   Occurrence   |Veloc|    Full    Full
  Link                 Type          LPS  days hr:min     m/sec    Flow   Depth
  -----------------------------------------------------------------------------
  WS02003066WSF200     CONDUIT    590.59     0  02:24      2.86    0.10    0.24
  WS02006287WS02006284 CONDUIT    274.09     0  02:09      1.78    0.13    0.25
  WS02006284WS02006280 CONDUIT    274.19     0  02:09      2.02    0.11    0.23
  WS02006280WS02006229 CONDUIT    274.19     0  02:09      3.26    0.06    0.16
  WS02006229WS02006228 CONDUIT    582.89     0  02:17      1.16    1.93    1.00
  WS02006256WS02006235 CONDUIT    166.25     0  00:01      2.58    1.76    1.00
  WS02006253WS02006251 CONDUIT     67.77     0  01:58      0.52    0.20    0.98
  WS02006252WS02006251 CONDUIT    400.24     0  02:20      3.18    1.47    1.00
  WS02006251WS02006249 CONDUIT    447.42     0  02:20      1.19    1.29    0.94
  WS02006249WS02006248 CONDUIT    355.63     0  03:20      1.24    1.95    0.89
  WS02006248WS02006247 CONDUIT    349.68     0  03:20      1.20    0.76    0.94
  WS02006247WS02006245 CONDUIT    342.85     0  03:20      1.17    2.72    0.99
  WS02006245WS02006243 CONDUIT    335.11     0  03:21      1.21    0.99    0.99
  WS02006243WS02006242 CONDUIT    335.12     0  05:51      1.03    0.72    1.00
  WS02006242WS02006240 CONDUIT    332.41     0  05:50      0.91    1.32    1.00
  WS02006240WS02006239 CONDUIT    330.56     0  05:50      0.95    1.04    1.00
  WS02006239WS02006238 CONDUIT    328.65     0  05:50      0.90    1.05    1.00
  WS02006238WS02006235 CONDUIT    326.83     0  05:50      1.25    0.73    1.00
  WS02006235WS02006234 CONDUIT    387.17     0  05:12      1.04    4.08    1.00
  WS02006234WS02006232 CONDUIT    385.63     0  05:12      1.13    0.78    1.00
  WS02006232WS02006231 CONDUIT    385.61     0  05:12      1.05    0.81    1.00
  WS02006231WS02006230 CONDUIT    383.23     0  05:12      1.36    5.81    1.00
  WS02006230WS02006229 CONDUIT    391.88     0  05:13      1.02    8.72    1.00
  WS02006228WS02006109 CONDUIT    582.73     0  02:17      1.16    2.55    1.00
  WS02006116WS02004401 CONDUIT    592.70     0  02:21      0.81    0.82    0.89
  WS02006115WS02006116 CONDUIT    593.64     0  02:21      0.92    0.76    0.81
  WS02006113WS02006111 CONDUIT    611.10     0  02:19      2.54    0.73    0.48
  WS02006112WS02006115 CONDUIT    607.72     0  02:16      0.83    0.36    0.90
  WS02006111WS02006112 CONDUIT    591.31     0  02:20      1.62    0.28    0.68
  WS02006110WS02006113 CONDUIT    584.98     0  02:17      1.36    0.53    0.80
  WS02006109WS02006110 CONDUIT    583.98     0  02:17      1.16    1.12    1.00
  WS02004411WS02004412 CONDUIT    590.76     0  02:23      0.97    0.84    0.72
  WS02004401WS02004402 CONDUIT    592.29     0  02:21      0.79    0.71    0.91
  WS02004413WS02003067 CONDUIT    590.51     0  02:23      1.17    0.25    0.61
  WS02004412WS02004413 CONDUIT    590.63     0  02:23      0.87    0.40    0.80
  WS02004410WS02004411 CONDUIT    590.95     0  02:22      0.98    0.81    0.72
  WS02004409WS02004410 CONDUIT    591.36     0  02:22      1.01    0.76    0.71
  WS02004407WS02004409 CONDUIT    591.83     0  02:22      1.52    0.21    0.51
  WS02004406WS02004407 CONDUIT    591.98     0  02:22      1.10    0.26    0.65
  WS02004405WS02004406 CONDUIT    592.11     0  02:21      0.76    1.17    0.99
  WS02004404WS02004405 CONDUIT    592.13     0  02:21      0.84    5.80    1.00
  WS02004403WS02004404 CONDUIT    591.96     0  02:21      0.76    0.43    0.97
  WS02004402WS02004403 CONDUIT    592.06     0  02:21      0.78    0.85    0.93
  WS02004139WS02001211 CONDUIT    364.45     0  04:30      0.58    0.46    0.55
  WS02004138WS02004139 CONDUIT    378.66     0  04:30      2.39    0.08    0.41
  WS02003067WS02003066 CONDUIT    590.58     0  02:24      1.27    0.19    0.43
  WS02001213WS02003059 CONDUIT    356.77     0  04:34      0.63    0.59    0.73
  WS02001212WS02001213 CONDUIT    360.79     0  04:32      1.28    0.56    0.42
  WS02001211WS02001212 CONDUIT    363.21     0  04:32      0.75    0.28    0.59
  WS02003072WS02003073 CONDUIT    866.82     0  02:38      1.68    1.87    0.47
  WS02003069WS02003072 CONDUIT    866.86     0  02:37      1.58    0.42    0.49
  WS02003060WS02003069 CONDUIT    866.57     0  02:37      1.83    0.34    0.44
  WS02003059WS02003060 CONDUIT    355.24     0  04:34      0.80    0.23    0.63
  HS02004901HS02004770 CONDUIT     12.22     0  02:07      0.05    0.05    0.35
  HS02004876HS02004881 CONDUIT     51.28     0  02:08      0.76    0.55    0.10
  HS02004870HS02004876 CONDUIT     41.17     0  02:09      0.52    0.03    0.11
  HS02004842HS02004848 CONDUIT      8.71     0  02:17      0.04    0.01    0.29
  HS02004837HS02004842 CONDUIT      8.85     0  02:14      0.41    0.01    0.30
  HS02004830HS02004837 CONDUIT     32.31     0  02:09      0.50    0.03    0.09
  HS02004824HS02004830 CONDUIT     32.45     0  02:09      0.53    0.04    0.09
  HS02004817HS02004824 CONDUIT     59.84     0  02:10      0.20    0.03    0.43
  HS02004770HS02004777 CONDUIT     64.45     0  02:07      0.26    0.12    0.36
  HS02004799HS02004480 CONDUIT    164.63     0  02:07      0.67    0.21    0.35
  HS02004792HS02004799 CONDUIT    149.69     0  02:07      0.76    0.09    0.28
  HS02004788HS02004792 CONDUIT     86.94     0  02:08      0.90    0.06    0.14
  HS02004785HS02004788 CONDUIT     64.57     0  02:08      0.57    0.49    0.16
  HS02004777HS02004785 CONDUIT     64.44     0  02:07      0.31    0.08    0.29
  HS02004480HS02004478 CONDUIT    195.75     0  02:08      1.06    0.82    0.26
  HS02004479HS02004480 CONDUIT     31.31     0  02:10      0.28    0.03    0.34
  HS02004862HS02004870 CONDUIT     31.19     0  02:09      0.56    0.03    0.08
  HS02004848HS02004852 CONDUIT     13.78     0  02:09      0.38    0.02    0.05
  HS02004856HS02004862 CONDUIT     21.24     0  02:09      0.41    0.02    0.07
  HS02004852HS02004856 CONDUIT     13.76     0  02:09      0.18    0.02    0.11
  HS02004802HS02004478 CONDUIT     78.88     0  02:11      0.38    0.07    0.29
  HS02004478WS02006287 CONDUIT    274.08     0  02:09      1.48    0.08    0.21
  HS02004817HS02004807 CONDUIT     60.62     0  02:11      0.15    0.04    0.56
  HS02004807HS02004802 CONDUIT     78.69     0  02:10      0.32    0.15    0.35
  YS02001759YS02001757 CONDUIT    501.13     0  02:44      0.64    0.36    1.00
  YS02001762YS02001759 CONDUIT    259.76     0  02:32      0.33    0.30    1.00
  YS02001765YS02001762 CONDUIT    258.31     0  02:32      0.33    0.24    1.00
  YS02001770YS02001767 CONDUIT    256.65     0  02:45      0.38    1.02    1.00
  YS02001774YS02001770 CONDUIT    316.48     0  03:14      0.40    0.20    1.00
  YS02001779YS02001774 CONDUIT    316.85     0  03:14      0.40    0.16    1.00
  YS02001649YS02001757 CONDUIT    788.37     0  02:38      1.00    0.48    1.00
  YS02001767YS02001765 CONDUIT    257.19     0  02:45      0.35    0.32    1.00
  YS02006561YS02001783 CONDUIT    841.86     0  02:57      2.11    0.44    1.00
  YS02001783YS02001784 CONDUIT    841.86     0  02:57      1.67    1.16    1.00
  YS02001784YS02001785 CONDUIT    842.83     0  02:57      1.73    1.96    1.00
  YS02001788YS02001790 CONDUIT    843.02     0  02:57      2.27    0.62    1.00
  YS02001790YS02001791 CONDUIT    843.07     0  02:57      2.74    0.92    1.00
  YS02001791YS02001793 CONDUIT    843.13     0  02:57      5.52    0.36    1.00
  YS02001910YS02001907 CONDUIT    323.30     0  03:06      0.49    0.18    1.00
  YS02001786YS02001788 CONDUIT    842.93     0  02:57      2.18    1.62    1.00
  YS02001915YS02001910 CONDUIT    323.38     0  03:06      0.56    0.16    1.00
  YS02001918YS02001915 CONDUIT    151.00     0  03:10      0.44    0.08    0.91
  YS02001923YS02001920 CONDUIT    148.42     0  03:02      0.66    0.07    0.75
  YS02001926YS02001923 CONDUIT    114.56     0  03:02      0.76    0.16    0.43
  YS02001929YS02001926 CONDUIT    102.77     0  03:01      0.81    0.05    0.31
  YS02001920YS02001918 CONDUIT    160.75     0  03:06      0.65    0.16    0.85
  YS02001629YS02163301 CONDUIT    212.51     0  02:19      0.27    0.26    1.00
  YS02001619YS02001622 CONDUIT    183.66     0  02:54      0.67    0.27    1.00
  YS02001622YS02001625 CONDUIT    183.51     0  02:54      0.32    0.10    1.00
  YS02001625YS02001629 CONDUIT    182.68     0  02:15      0.27    0.09    1.00
  YS02163301YS02001633 CONDUIT    212.63     0  02:19      0.27    0.20    1.00
  YS02163601YS02164001 CONDUIT    378.64     0  02:19      0.48    0.34    1.00
  YS02164001YS02001641 CONDUIT    377.68     0  02:19      0.48    0.52    1.00
  YS02001641YS02001644 CONDUIT    377.14     0  02:18      0.48    1.22    1.00
  YS02001647YS02001649 CONDUIT    569.51     0  02:39      0.73    0.30    1.00
  YS02006553YS02006556 CONDUIT    589.98     0  03:03      0.75    0.50    1.00
  YS02006556YS02006558 CONDUIT    590.09     0  03:03      0.75    0.47    1.00
  YSB6556YSB1171       CONDUIT     18.03     0  02:09      0.07    0.02    0.61
  YS02001907YS02006553 CONDUIT    589.92     0  03:03      0.66    0.69    1.00
  YS02006558YS02006561 CONDUIT    844.86     0  02:54      3.17    1.87    1.00
  YS02001633YS02163601 CONDUIT    378.98     0  02:19      0.48    0.40    1.00
  YS02001644YS02001647 CONDUIT    569.05     0  02:39      0.72    0.33    1.00
  YS02001745YS02001748 CONDUIT    592.32     0  02:26      1.53    0.23    0.94
  YS02001748YS02001751 CONDUIT    370.00     0  02:14      1.14    0.19    1.00
  YS02001751YS02001754 CONDUIT    241.85     0  02:27      0.97    0.12    1.00
  YS02001754YS02001757 CONDUIT    238.13     0  02:27      0.33    0.10    1.00
  YS02001882YS02001884 CONDUIT     22.56     0  02:19      0.12    0.03    1.00
  YS02001884YS02001887 CONDUIT     42.77     0  02:18      0.09    0.06    1.00
  YS02001890YS02001895 CONDUIT    305.50     0  02:43      0.46    0.14    1.00
  YS02001895YS02001898 CONDUIT    306.94     0  02:43      0.56    0.53    1.00
  YS02001898YS02001901 CONDUIT    306.35     0  02:54      0.50    0.20    1.00
  YS02001901YS02001904 CONDUIT    306.53     0  02:54      0.46    0.48    1.00
  YS02001904YS02001907 CONDUIT    307.04     0  02:53      0.39    0.11    1.00
  YS02001887YS02001890 CONDUIT    304.87     0  02:43      0.42    0.52    1.00
  YS02001652YS02001649 CONDUIT    280.89     0  02:09      0.58    0.14    1.00
  YS02001655YS02001652 CONDUIT    278.64     0  02:21      1.05    0.14    1.00
  YS02001658YS02001655 CONDUIT    390.72     0  02:16      1.31    0.17    1.00
  YS02001661YS02001658 CONDUIT    628.02     0  02:21      1.61    0.25    1.00
  YS02001664YS02001661 CONDUIT    619.99     0  02:42      1.52    0.19    0.72
  YSB1154YSB6556       CONDUIT     17.99     0  02:06      0.16    0.03    0.50
  YSB1174YSB1171       CONDUIT     13.75     0  01:36      0.06    0.02    0.62
  YSB1171HS02004479    CONDUIT     31.20     0  02:09      0.54    0.02    0.48
  HS02004881HS02006253 CONDUIT     56.59     0  02:08      1.92    0.01    0.28
  YS02001793JiankangQianchi CONDUIT    939.34     0  02:13     13.39    0.07    1.00
  YS02001757CaochengTiaoxuchi CONDUIT   1463.28     0  02:38      2.27    0.64    1.00
  WSF200WS02003060     CONDUIT    589.97     0  02:24      1.95    0.13    0.34
  1                    CONDUIT    868.55     0  02:39      3.20    0.30    0.38
  2                    CONDUIT    180.37     0  02:20      5.69    0.43    0.46
  3                    CONDUIT    511.44     0  02:40      9.83    0.81    0.69
  4                    CONDUIT      0.00     0  00:00      0.00    0.00    0.00
  CC-Pump-1            PUMP       200.00     0  02:10              1.00
  CC-Pump-2            PUMP       200.00     0  01:42              1.00
  JK-Pump-1            PUMP       300.00     0  01:47              1.00
  JK-Pump-2            PUMP       300.00     0  00:00              1.00
  XR-Pump-1            PUMP        95.00     0  00:00              1.00
  XR-Pump-2            PUMP        95.00     0  02:30              1.00
  XR-Pump-3            PUMP        95.00     0  00:20              1.00
  XR-Pump-4            PUMP        95.00     0  01:00              1.00
  
  
  ***************************
  Flow Classification Summary
  ***************************
  
  -------------------------------------------------------------------------------------
                      Adjusted    ---------- Fraction of Time in Flow Class ---------- 
                       /Actual         Up    Down  Sub   Sup   Up    Down  Norm  Inlet 
  Conduit               Length    Dry  Dry   Dry   Crit  Crit  Crit  Crit  Ltd   Ctrl  
  -------------------------------------------------------------------------------------
  WS02003066WSF200        1.00   0.06  0.00  0.00  0.00  0.94  0.00  0.00  0.63  0.00
  WS02006287WS02006284    1.00   0.04  0.01  0.00  0.58  0.38  0.00  0.00  0.68  0.00
  WS02006284WS02006280    1.00   0.04  0.00  0.00  0.00  0.00  0.00  0.96  0.00  0.00
  WS02006280WS02006229    1.00   0.04  0.00  0.00  0.00  0.00  0.00  0.96  0.00  0.00
  WS02006229WS02006228    1.00   0.00  0.00  0.00  0.99  0.00  0.00  0.01  0.00  0.00
  WS02006256WS02006235    1.00   0.00  0.00  0.00  1.00  0.00  0.00  0.00  0.00  0.00
  WS02006253WS02006251    1.00   0.03  0.01  0.00  0.96  0.00  0.00  0.00  0.00  0.00
  WS02006252WS02006251    1.00   0.06  0.00  0.00  0.00  0.00  0.94  0.00  0.00  0.00
  WS02006251WS02006249    1.00   0.00  0.00  0.00  1.00  0.00  0.00  0.00  0.25  0.00
  WS02006249WS02006248    1.00   0.00  0.02  0.00  0.85  0.00  0.13  0.00  0.00  0.00
  WS02006248WS02006247    1.00   0.02  0.00  0.00  0.98  0.00  0.00  0.00  0.14  0.00
  WS02006247WS02006245    1.00   0.02  0.00  0.00  0.98  0.00  0.00  0.00  0.00  0.00
  WS02006245WS02006243    1.00   0.01  0.00  0.00  0.95  0.00  0.00  0.03  0.01  0.00
  WS02006243WS02006242    1.00   0.01  0.00  0.00  0.99  0.00  0.00  0.00  0.17  0.00
  WS02006242WS02006240    1.00   0.00  0.00  0.00  1.00  0.00  0.00  0.00  0.00  0.00
  WS02006240WS02006239    1.00   0.00  0.00  0.00  0.97  0.00  0.00  0.03  0.01  0.00
  WS02006239WS02006238    1.00   0.00  0.00  0.00  1.00  0.00  0.00  0.00  0.00  0.00
  WS02006238WS02006235    1.00   0.00  0.00  0.00  1.00  0.00  0.00  0.00  0.00  0.00
  WS02006235WS02006234    1.00   0.00  0.00  0.00  0.97  0.00  0.03  0.00  0.00  0.00
  WS02006234WS02006232    1.00   0.00  0.00  0.00  1.00  0.00  0.00  0.00  0.05  0.00
  WS02006232WS02006231    1.00   0.00  0.00  0.00  0.99  0.00  0.00  0.00  0.00  0.00
  WS02006231WS02006230    1.00   0.00  0.00  0.00  0.47  0.00  0.52  0.00  0.00  0.00
  WS02006230WS02006229    1.00   0.00  0.00  0.00  0.99  0.00  0.00  0.01  0.01  0.00
  WS02006228WS02006109    1.00   0.00  0.00  0.00  1.00  0.00  0.00  0.00  0.00  0.00
  WS02006116WS02004401    1.00   0.02  0.00  0.00  0.98  0.00  0.00  0.00  0.00  0.00
  WS02006115WS02006116    1.00   0.02  0.00  0.00  0.97  0.00  0.00  0.01  0.00  0.00
  WS02006113WS02006111    1.00   0.02  0.00  0.00  0.00  0.98  0.00  0.00  0.13  0.00
  WS02006112WS02006115    1.00   0.02  0.00  0.00  0.98  0.00  0.00  0.00  0.00  0.00
  WS02006111WS02006112    1.00   0.02  0.00  0.00  0.98  0.00  0.00  0.00  0.98  0.00
  WS02006110WS02006113    1.00   0.01  0.01  0.00  0.98  0.00  0.00  0.00  0.00  0.00
  WS02006109WS02006110    1.00   0.00  0.01  0.00  0.98  0.00  0.01  0.00  0.00  0.00
  WS02004411WS02004412    1.00   0.04  0.00  0.00  0.96  0.00  0.00  0.00  0.00  0.00
  WS02004401WS02004402    1.00   0.02  0.00  0.00  0.98  0.00  0.00  0.00  0.00  0.00
  WS02004413WS02003067    1.00   0.04  0.01  0.00  0.00  0.00  0.95  0.00  0.00  0.00
  WS02004412WS02004413    1.00   0.04  0.00  0.00  0.96  0.00  0.00  0.00  0.03  0.00
  WS02004410WS02004411    1.00   0.04  0.00  0.00  0.96  0.00  0.00  0.00  0.03  0.00
  WS02004409WS02004410    1.00   0.04  0.00  0.00  0.96  0.00  0.00  0.00  0.02  0.00
  WS02004407WS02004409    1.00   0.04  0.00  0.00  0.96  0.00  0.00  0.00  0.89  0.00
  WS02004406WS02004407    1.00   0.00  0.03  0.00  0.96  0.00  0.00  0.00  0.00  0.00
  WS02004405WS02004406    1.00   0.00  0.00  0.00  1.00  0.00  0.00  0.00  0.01  0.00
  WS02004404WS02004405    1.00   0.00  0.00  0.00  1.00  0.00  0.00  0.00  0.00  0.00
  WS02004403WS02004404    1.00   0.00  0.02  0.00  0.98  0.00  0.00  0.00  0.01  0.00
  WS02004402WS02004403    1.00   0.02  0.00  0.00  0.98  0.00  0.00  0.00  0.00  0.00
  WS02004139WS02001211    1.00   0.00  0.00  0.00  0.99  0.00  0.01  0.00  0.00  0.00
  WS02004138WS02004139    1.00   0.00  0.00  0.00  0.99  0.01  0.00  0.00  1.00  0.00
  WS02003067WS02003066    1.00   0.05  0.01  0.00  0.94  0.00  0.00  0.00  0.00  0.00
  WS02001213WS02003059    1.00   0.00  0.01  0.00  0.99  0.00  0.00  0.00  0.00  0.00
  WS02001212WS02001213    1.00   0.01  0.00  0.00  0.75  0.00  0.24  0.00  0.00  0.00
  WS02001211WS02001212    1.00   0.00  0.01  0.00  0.99  0.00  0.00  0.00  0.00  0.00
  WS02003072WS02003073    1.00   0.00  0.00  0.00  0.00  0.00  0.00  1.00  0.00  0.00
  WS02003069WS02003072    1.00   0.00  0.00  0.00  0.99  0.01  0.00  0.00  0.32  0.00
  WS02003060WS02003069    1.00   0.00  0.00  0.00  0.97  0.03  0.00  0.00  0.19  0.00
  WS02003059WS02003060    1.00   0.00  0.00  0.00  1.00  0.00  0.00  0.00  0.02  0.00
  HS02004901HS02004770    1.00   0.04  0.00  0.00  0.96  0.00  0.00  0.00  0.00  0.00
  HS02004876HS02004881    1.00   0.02  0.00  0.00  0.98  0.00  0.00  0.00  0.00  0.00
  HS02004870HS02004876    1.00   0.01  0.00  0.00  0.99  0.00  0.00  0.00  0.95  0.00
  HS02004842HS02004848    1.00   0.00  0.04  0.00  0.96  0.00  0.00  0.00  0.58  0.00
  HS02004837HS02004842    1.00   0.00  0.00  0.00  0.99  0.01  0.00  0.00  0.11  0.00
  HS02004830HS02004837    1.00   0.00  0.00  0.00  1.00  0.00  0.00  0.00  0.99  0.00
  HS02004824HS02004830    1.00   0.00  0.00  0.00  1.00  0.00  0.00  0.00  0.00  0.00
  HS02004817HS02004824    1.00   0.00  0.00  0.00  1.00  0.00  0.00  0.00  1.00  0.00
  HS02004770HS02004777    1.00   0.00  0.04  0.00  0.96  0.00  0.00  0.00  0.03  0.00
  HS02004799HS02004480    1.00   0.00  0.02  0.00  0.95  0.00  0.02  0.00  0.00  0.00
  HS02004792HS02004799    1.00   0.00  0.00  0.00  0.99  0.01  0.00  0.00  0.98  0.00
  HS02004788HS02004792    1.00   0.00  0.00  0.00  0.99  0.01  0.00  0.00  0.98  0.00
  HS02004785HS02004788    1.00   0.00  0.00  0.00  1.00  0.00  0.00  0.00  0.00  0.00
  HS02004777HS02004785    1.00   0.00  0.00  0.00  1.00  0.00  0.00  0.00  0.12  0.00
  HS02004480HS02004478    1.00   0.04  0.00  0.00  0.63  0.00  0.00  0.33  0.00  0.00
  HS02004479HS02004480    1.00   0.03  0.00  0.00  0.97  0.00  0.00  0.00  0.12  0.00
  HS02004862HS02004870    1.00   0.00  0.00  0.00  1.00  0.00  0.00  0.00  0.04  0.00
  HS02004848HS02004852    1.00   0.04  0.00  0.00  0.96  0.00  0.00  0.00  0.76  0.00
  HS02004856HS02004862    1.00   0.00  0.05  0.00  0.95  0.00  0.00  0.00  0.83  0.00
  HS02004852HS02004856    1.00   0.04  0.00  0.00  0.96  0.00  0.00  0.00  0.86  0.00
  HS02004802HS02004478    1.00   0.04  0.00  0.00  0.96  0.00  0.00  0.00  0.03  0.00
  HS02004478WS02006287    1.00   0.05  0.00  0.00  0.69  0.26  0.00  0.00  0.65  0.00
  HS02004817HS02004807    1.00   0.00  0.04  0.00  0.96  0.00  0.00  0.00  0.01  0.00
  HS02004807HS02004802    1.00   0.04  0.00  0.00  0.96  0.00  0.00  0.00  0.00  0.00
  YS02001759YS02001757    1.00   0.00  0.00  0.00  1.00  0.00  0.00  0.00  0.16  0.00
  YS02001762YS02001759    1.00   0.00  0.00  0.00  1.00  0.00  0.00  0.00  0.03  0.00
  YS02001765YS02001762    1.00   0.00  0.00  0.00  1.00  0.00  0.00  0.00  0.14  0.00
  YS02001770YS02001767    1.00   0.00  0.00  0.00  1.00  0.00  0.00  0.00  0.00  0.00
  YS02001774YS02001770    1.00   0.00  0.04  0.00  0.96  0.00  0.00  0.00  0.03  0.00
  YS02001779YS02001774    1.00   0.00  0.00  0.00  1.00  0.00  0.00  0.00  0.18  0.00
  YS02001649YS02001757    1.00   0.00  0.00  0.00  1.00  0.00  0.00  0.00  0.16  0.00
  YS02001767YS02001765    1.00   0.00  0.00  0.00  1.00  0.00  0.00  0.00  0.00  0.00
  YS02006561YS02001783    1.00   0.05  0.00  0.00  0.43  0.52  0.00  0.00  0.58  0.00
  YS02001783YS02001784    1.00   0.00  0.05  0.00  0.95  0.00  0.00  0.00  0.00  0.00
  YS02001784YS02001785    1.00   0.00  0.00  0.00  1.00  0.00  0.00  0.00  0.17  0.00
  YS02001788YS02001790    1.00   0.00  0.00  0.00  0.52  0.48  0.00  0.00  0.52  0.00
  YS02001790YS02001791    1.00   0.00  0.00  0.00  0.50  0.50  0.00  0.00  0.38  0.00
  YS02001791YS02001793    1.00   0.00  0.00  0.00  0.50  0.50  0.00  0.00  0.01  0.00
  YS02001910YS02001907    1.00   0.00  0.00  0.00  0.98  0.00  0.00  0.02  0.12  0.00
  YS02001786YS02001788    1.00   0.00  0.00  0.00  0.50  0.50  0.00  0.00  0.00  0.00
  YS02001915YS02001910    1.00   0.00  0.00  0.00  0.99  0.01  0.00  0.00  0.16  0.00
  YS02001918YS02001915    1.00   0.00  0.01  0.00  0.98  0.01  0.00  0.00  0.59  0.00
  YS02001923YS02001920    1.00   0.00  0.00  0.00  1.00  0.00  0.00  0.00  0.87  0.00
  YS02001926YS02001923    1.00   0.00  0.03  0.00  0.10  0.00  0.87  0.00  0.00  0.00
  YS02001929YS02001926    1.00   0.00  0.04  0.00  0.96  0.00  0.00  0.00  0.85  0.00
  YS02001920YS02001918    1.00   0.00  0.01  0.00  0.99  0.00  0.00  0.00  0.00  0.00
  YS02001629YS02163301    1.00   0.04  0.00  0.00  0.95  0.00  0.00  0.00  0.00  0.00
  YS02001619YS02001622    1.00   0.04  0.00  0.00  0.96  0.00  0.00  0.00  0.00  0.00
  YS02001622YS02001625    1.00   0.04  0.00  0.00  0.96  0.00  0.00  0.00  0.04  0.00
  YS02001625YS02001629    1.00   0.04  0.01  0.00  0.93  0.00  0.01  0.00  0.00  0.00
  YS02163301YS02001633    1.00   0.00  0.04  0.00  0.96  0.00  0.00  0.00  0.00  0.00
  YS02163601YS02164001    1.00   0.00  0.03  0.00  0.97  0.00  0.00  0.00  0.00  0.00
  YS02164001YS02001641    1.00   0.01  0.02  0.00  0.97  0.00  0.00  0.00  0.06  0.00
  YS02001641YS02001644    1.00   0.00  0.01  0.00  0.99  0.00  0.00  0.00  0.00  0.00
  YS02001647YS02001649    1.00   0.00  0.05  0.00  0.95  0.00  0.00  0.00  0.01  0.00
  YS02006553YS02006556    1.00   0.01  0.00  0.00  0.99  0.00  0.00  0.00  0.03  0.00
  YS02006556YS02006558    1.00   0.00  0.00  0.00  1.00  0.00  0.00  0.00  0.00  0.00
  YSB6556YSB1171          1.00   0.03  0.01  0.00  0.96  0.00  0.00  0.00  0.00  0.00
  YS02001907YS02006553    1.00   0.00  0.02  0.00  0.98  0.00  0.00  0.00  0.00  0.00
  YS02006558YS02006561    1.00   0.05  0.00  0.00  0.16  0.79  0.00  0.00  0.51  0.00
  YS02001633YS02163601    1.00   0.00  0.01  0.00  0.99  0.00  0.00  0.00  0.15  0.00
  YS02001644YS02001647    1.00   0.00  0.05  0.00  0.95  0.00  0.00  0.00  0.00  0.00
  YS02001745YS02001748    1.00   0.00  0.00  0.00  0.90  0.01  0.00  0.09  0.04  0.00
  YS02001748YS02001751    1.00   0.00  0.00  0.00  0.98  0.02  0.00  0.00  0.14  0.00
  YS02001751YS02001754    1.00   0.00  0.00  0.00  0.95  0.00  0.00  0.05  0.02  0.00
  YS02001754YS02001757    1.00   0.00  0.00  0.00  0.99  0.01  0.00  0.00  0.18  0.00
  YS02001882YS02001884    1.00   0.04  0.00  0.00  0.95  0.00  0.00  0.00  0.00  0.00
  YS02001884YS02001887    1.00   0.03  0.01  0.00  0.96  0.00  0.00  0.00  0.00  0.00
  YS02001890YS02001895    1.00   0.00  0.04  0.00  0.95  0.00  0.00  0.00  0.00  0.00
  YS02001895YS02001898    1.00   0.05  0.00  0.00  0.95  0.00  0.01  0.00  0.00  0.00
  YS02001898YS02001901    1.00   0.05  0.00  0.00  0.95  0.00  0.00  0.00  0.01  0.00
  YS02001901YS02001904    1.00   0.05  0.00  0.00  0.95  0.00  0.00  0.00  0.00  0.00
  YS02001904YS02001907    1.00   0.00  0.04  0.00  0.95  0.00  0.00  0.00  0.00  0.00
  YS02001887YS02001890    1.00   0.00  0.00  0.00  0.98  0.00  0.02  0.00  0.00  0.00
  YS02001652YS02001649    1.00   0.00  0.00  0.00  1.00  0.00  0.00  0.00  0.16  0.00
  YS02001655YS02001652    1.00   0.00  0.00  0.00  0.95  0.00  0.00  0.05  0.02  0.00
  YS02001658YS02001655    1.00   0.00  0.04  0.00  0.93  0.02  0.00  0.00  0.03  0.00
  YS02001661YS02001658    1.00   0.04  0.00  0.00  0.90  0.06  0.00  0.00  0.03  0.00
  YS02001664YS02001661    1.00   0.04  0.00  0.00  0.87  0.09  0.00  0.00  0.19  0.00
  YSB1154YSB6556          1.00   0.04  0.00  0.00  0.96  0.00  0.00  0.00  0.02  0.00
  YSB1174YSB1171          1.00   0.03  0.01  0.00  0.97  0.00  0.00  0.00  0.00  0.00
  YSB1171HS02004479       1.00   0.03  0.00  0.00  0.97  0.00  0.00  0.00  0.10  0.00
  HS02004881HS02006253    1.00   0.03  0.00  0.00  0.63  0.05  0.00  0.29  0.55  0.00
  YS02001793JiankangQianchi    1.00   0.00  0.00  0.00  0.65  0.35  0.00  0.00  0.14  0.00
  YS02001757CaochengTiaoxuchi    1.00   0.00  0.06  0.00  0.93  0.01  0.00  0.00  0.00  0.00
  WSF200WS02003060        1.00   0.00  0.06  0.00  0.44  0.50  0.00  0.00  0.15  0.00
  1                       1.00   0.00  0.00  0.00  0.00  1.00  0.00  0.00  0.35  0.00
  2                       1.00   0.78  0.00  0.00  0.00  0.22  0.00  0.00  0.05  0.00
  3                       1.00   0.19  0.00  0.00  0.00  0.81  0.00  0.00  0.31  0.00
  4                       1.00   1.00  0.00  0.00  0.00  0.00  0.00  0.00  0.00  0.00
  
  
  *************************
  Conduit Surcharge Summary
  *************************
  
  ----------------------------------------------------------------------------
                                                           Hours        Hours 
                         --------- Hours Full --------   Above Full   Capacity
  Conduit                Both Ends  Upstream  Dnstream   Normal Flow   Limited
  ----------------------------------------------------------------------------
  WS02006229WS02006228        1.73      1.85      1.73      4.04         1.73
  WS02006256WS02006235        6.23      6.24      7.33      3.64         0.01
  WS02006253WS02006251        0.01      0.01      0.01      0.01         0.01
  WS02006252WS02006251        0.37      0.37      1.13      0.94         0.01
  WS02006251WS02006249        0.01      0.01      0.01      0.48         0.01
  WS02006249WS02006248        0.01      0.01      0.01      3.71         0.01
  WS02006247WS02006245        0.01      0.01      0.01      4.43         0.01
  WS02006245WS02006243        0.01      0.01      0.08      0.01         0.01
  WS02006243WS02006242        0.12      0.12      0.67      0.01         0.01
  WS02006242WS02006240        0.30      0.30      0.96      1.04         0.01
  WS02006240WS02006239        0.34      0.34      0.60      0.04         0.01
  WS02006239WS02006238        0.94      0.94      1.08      0.05         0.01
  WS02006238WS02006235        1.01      1.01      1.34      0.01         0.01
  WS02006235WS02006234        0.68      0.68      0.92      6.23         0.01
  WS02006234WS02006232        0.77      0.77      1.57      0.01         0.01
  WS02006232WS02006231        0.30      0.30      1.57      0.01         0.01
  WS02006231WS02006230        0.01      0.01      0.38      6.29         0.01
  WS02006230WS02006229        2.44      3.66      2.44      6.46         2.44
  WS02006228WS02006109        1.76      2.19      1.76      4.92         1.76
  WS02006112WS02006115        0.01      0.01      1.10      0.01         0.01
  WS02006111WS02006112        0.01      0.01      4.08      0.01         0.01
  WS02006110WS02006113        0.01      0.01      2.03      0.01         0.01
  WS02006109WS02006110        0.92      0.92      2.18      0.92         0.01
  WS02004405WS02004406        0.01      0.01      0.01      1.06         0.01
  WS02004404WS02004405        0.01      0.01      0.01      6.25         0.01
  WS02004403WS02004404        0.01      0.01      0.01      0.01         0.01
  WS02003072WS02003073        0.01      0.01      0.01      3.80         0.01
  YS02001759YS02001757        5.98      5.98      6.04      0.01         0.01
  YS02001762YS02001759        5.96      5.96      5.98      0.01         0.01
  YS02001765YS02001762        5.94      5.94      5.96      0.01         0.01
  YS02001770YS02001767        5.92      5.92      5.92      0.08         0.78
  YS02001774YS02001770        5.90      5.90      5.95      0.01         0.01
  YS02001779YS02001774        5.74      5.74      5.95      0.01         0.01
  YS02001649YS02001757        5.96      5.96      6.04      0.01         0.01
  YS02001767YS02001765        5.92      5.92      5.94      0.01         0.01
  YS02006561YS02001783        0.01      0.01      1.22      0.01         0.01
  YS02001783YS02001784        1.22      1.22      1.27      0.88         0.82
  YS02001784YS02001785        1.22      1.27      1.22      2.02         1.22
  YS02001788YS02001790        1.21      1.21      2.78      0.01         0.01
  YS02001790YS02001791        2.78      2.78      2.90      0.01         0.01
  YS02001791YS02001793        2.90      2.90      3.20      0.01         0.01
  YS02001910YS02001907        0.82      0.82      1.45      0.01         0.01
  YS02001786YS02001788        1.21      1.22      1.21      1.63         1.21
  YS02001915YS02001910        0.44      0.44      0.82      0.01         0.01
  YS02001918YS02001915        0.01      0.01      0.44      0.01         0.01
  YS02001629YS02163301        5.87      5.87      5.91      0.01         0.01
  YS02001619YS02001622        5.52      5.52      5.57      0.01         0.02
  YS02001622YS02001625        5.57      5.57      5.78      0.01         0.01
  YS02001625YS02001629        5.54      5.54      5.78      0.01         0.01
  YS02163301YS02001633        5.91      5.91      5.94      0.01         0.01
  YS02163601YS02164001        5.94      5.94      5.96      0.01         0.01
  YS02164001YS02001641        5.94      5.94      5.94      0.01         0.03
  YS02001641YS02001644        5.94      5.94      5.95      1.02         1.32
  YS02001647YS02001649        5.76      5.76      5.96      0.01         0.01
  YS02006553YS02006556        1.11      1.11      1.50      0.01         0.01
  YS02006556YS02006558        1.28      1.28      1.58      0.01         0.01
  YS02001907YS02006553        2.04      2.04      2.24      0.01         0.01
  YS02006558YS02006561        0.65      1.07      0.65      1.89         0.65
  YS02001633YS02163601        5.93      5.93      5.96      0.01         0.01
  YS02001644YS02001647        5.76      5.76      5.95      0.01         0.01
  YS02001745YS02001748        0.01      0.01      5.25      0.01         0.01
  YS02001748YS02001751        5.34      5.34      5.49      0.01         0.01
  YS02001751YS02001754        5.49      5.49      5.74      0.01         0.01
  YS02001754YS02001757        5.76      5.76      6.04      0.01         0.01
  YS02001882YS02001884        0.48      0.48      0.55      0.01         0.01
  YS02001884YS02001887        0.66      0.66      0.71      0.01         0.01
  YS02001890YS02001895        0.41      0.41      0.85      0.01         0.01
  YS02001895YS02001898        0.36      0.36      0.41      0.01         0.01
  YS02001898YS02001901        0.42      0.42      0.64      0.01         0.01
  YS02001901YS02001904        0.61      0.61      0.64      0.01         0.01
  YS02001904YS02001907        0.61      0.61      1.53      0.01         0.01
  YS02001887YS02001890        0.76      0.76      0.80      0.01         0.01
  YS02001652YS02001649        5.77      5.77      5.96      0.01         0.01
  YS02001655YS02001652        5.54      5.54      5.76      0.01         0.01
  YS02001658YS02001655        5.30      5.30      5.54      0.01         0.01
  YS02001661YS02001658        0.20      0.20      5.30      0.01         0.01
  YS02001664YS02001661        0.01      0.01      1.04      0.01         0.01
  YS02001793JiankangQianchi        3.16      3.16      3.86      0.01         0.01
  YS02001757CaochengTiaoxuchi        5.16      5.16      6.04      0.01         0.01
  
  
  ***************
  Pumping Summary
  ***************
  
  ---------------------------------------------------------------------------------------------------------
                                                  Min       Avg       Max     Total     Power    % Time Off
                        Percent   Number of      Flow      Flow      Flow    Volume     Usage    Pump Curve
  Pump                 Utilized   Start-Ups       LPS       LPS       LPS  10^6 ltr     Kw-hr    Low   High
  ---------------------------------------------------------------------------------------------------------
  CC-Pump-1               51.38           6      0.00    118.01    200.00     1.674      2.23    0.0    8.6
  CC-Pump-2               59.90           6      0.00    126.73    200.00     2.091      2.90    0.0    7.7
  JK-Pump-1               68.07           7      0.00    175.08    300.00     2.758     30.48    0.0    0.0
  JK-Pump-2               74.47           8      0.00    163.20    300.00     2.719     28.47    0.0    0.0
  XR-Pump-1               72.33           8      0.00     68.05     95.00     1.368      7.61    0.0    0.0
  XR-Pump-2               51.03          10      0.00     53.98     95.00     0.741      4.08    0.0    0.0
  XR-Pump-3               85.09           8      0.00     68.10     95.00     1.624      8.55    0.0    0.0
  XR-Pump-4               61.69           9      0.00     62.24     95.00     1.083      5.54    0.0    0.0
  

  Analysis begun on:  Wed Jan  5 13:08:54 2022
  Analysis ended on:  Wed Jan  5 13:08:59 2022
  Total elapsed time: 00:00:05