
  EPA STORM WATER MANAGEMENT MODEL - VERSION 5.1 (Build 5.3.0.dev0)
  --------------------------------------------------------------

  WARNING 04: minimum elevation drop used for Conduit WS02004404WS02004405
  WARNING 03: negative offset ignored for Link YS02001904YS02001907
  
  *********************************************************
  NOTE: The summary statistics displayed in this report are
  based on results found at every computational time step,  
  not just on results from each reporting time step.
  *********************************************************
  
  ****************
  Analysis Options
  ****************
  Flow Units ............... LPS
  Process Models:
    Rainfall/Runoff ........ YES
    RDII ................... NO
    Snowmelt ............... NO
    Groundwater ............ NO
    Flow Routing ........... YES
    Ponding Allowed ........ NO
    Water Quality .......... NO
  Infiltration Method ...... HORTON
  Flow Routing Method ...... DYNWAVE
  Surcharge Method ......... EXTRAN
  Starting Date ............ 08/28/2015 08:00:00
  Ending Date .............. 08/28/2015 15:50:00
  Antecedent Dry Days ...... 8.0
  Report Time Step ......... 00:01:00
  Wet Time Step ............ 00:01:00
  Dry Time Step ............ 00:01:00
  Routing Time Step ........ 5.00 sec
  Variable Time Step ....... YES
  Maximum Trials ........... 8
  Number of Threads ........ 4
  Head Tolerance ........... 0.001500 m
  
  
  **************************        Volume         Depth
  Runoff Quantity Continuity     hectare-m            mm
  **************************     ---------       -------
  Total Precipitation ......         5.493        12.027
  Evaporation Loss .........         0.000         0.000
  Infiltration Loss ........         1.412         3.091
  Surface Runoff ...........         3.074         6.729
  Final Storage ............         1.009         2.209
  Continuity Error (%) .....        -0.014
  
  
  **************************        Volume        Volume
  Flow Routing Continuity        hectare-m      10^6 ltr
  **************************     ---------     ---------
  Dry Weather Inflow .......         0.616         6.165
  Wet Weather Inflow .......         3.072        30.724
  Groundwater Inflow .......         0.000         0.000
  RDII Inflow ..............         0.000         0.000
  External Inflow ..........         0.102         1.024
  External Outflow .........         1.852        18.518
  Flooding Loss ............         1.421        14.211
  Evaporation Loss .........         0.000         0.000
  Exfiltration Loss ........         0.000         0.000
  Initial Stored Volume ....         0.076         0.761
  Final Stored Volume ......         0.621         6.215
  Continuity Error (%) .....        -0.700
  
  
  *************************
  Highest Continuity Errors
  *************************
  Node HS02004842 (16.38%)
  Node YS02001884 (10.10%)
  Node YSB1171 (3.16%)
  Node YS02001774 (3.16%)
  Node HS02004817 (3.01%)
  
  
  ***************************
  Time-Step Critical Elements
  ***************************
  Link WS02006252WS02006251 (51.56%)
  Link 3 (39.82%)
  Link WS02006238WS02006235 (2.97%)
  
  
  ********************************
  Highest Flow Instability Indexes
  ********************************
  Link YS02001619YS02001622 (38)
  Link YS02001629YS02163301 (38)
  Link YS02163301YS02001633 (37)
  Link YS02163601YS02164001 (37)
  Link WS02006113WS02006111 (36)
  
  
  *************************
  Routing Time Step Summary
  *************************
  Minimum Time Step           :     0.05 sec
  Average Time Step           :     0.77 sec
  Maximum Time Step           :     5.00 sec
  Percent in Steady State     :    -0.00
  Average Iterations per Step :     4.77
  Percent Not Converging      :    24.78
  
  
  ***************************
  Subcatchment Runoff Summary
  ***************************
  
  ------------------------------------------------------------------------------------------------------------------------------
                            Total      Total      Total      Total     Imperv       Perv      Total       Total     Peak  Runoff
                           Precip      Runon       Evap      Infil     Runoff     Runoff     Runoff      Runoff   Runoff   Coeff
  Subcatchment                 mm         mm         mm         mm         mm         mm         mm    10^6 ltr      LPS
  ------------------------------------------------------------------------------------------------------------------------------
  sub0                      12.03       0.00       0.00       0.84       9.92       0.00       9.92        0.01     2.03   0.825
  sub1                      12.03       0.00       0.00       1.32       9.45       0.00       9.45        0.06    13.40   0.786
  sub2                      12.03       0.00       0.00       4.45       6.67       0.00       6.67        0.06    12.40   0.555
  sub3                      12.03       0.00       0.00       4.45       6.63       0.00       6.63        0.15    27.80   0.552
  sub4                      12.03       0.00       0.00       1.32       9.30       0.00       9.30        0.19    33.44   0.773
  sub5                      12.03       0.00       0.00       0.84       9.87       0.00       9.87        0.11    23.84   0.821
  sub7                      12.03       0.00       0.00       1.08       9.69       0.00       9.69        0.03     7.67   0.806
  sub8                      12.03       0.00       0.00       1.08       9.68       0.00       9.68        0.06    14.05   0.805
  sub9                      12.03       0.00       0.00       1.08       9.68       0.00       9.68        0.05    10.50   0.805
  sub10                     12.03       0.00       0.00       0.96       9.77       0.00       9.77        0.11    23.44   0.813
  sub11                     12.03       0.00       0.00       0.96       9.79       0.00       9.79        0.11    26.14   0.814
  sub12                     12.03       0.00       0.00       1.56       9.28       0.00       9.28        0.08    19.99   0.771
  sub14                     12.03       0.00       0.00       1.08       9.68       0.00       9.68        0.09    20.64   0.805
  sub15                     12.03       0.00       0.00       3.61       7.44       0.00       7.44        0.13    28.31   0.619
  sub16                     12.03       0.00       0.00       3.97       7.14       0.00       7.14        0.07    18.12   0.594
  sub17                     12.03       0.00       0.00       3.85       7.24       0.00       7.24        0.06    14.90   0.602
  sub22                     12.03       0.00       0.00       5.17       6.07       0.00       6.07        0.38    88.71   0.504
  sub23                     12.03       0.00       0.00       4.45       6.71       0.00       6.71        0.32    74.74   0.558
  sub60                     12.03       0.00       0.00       1.44       7.74       0.00       7.74        2.35   221.95   0.644
  sub61                     12.03       0.00       0.00       2.04       7.85       0.00       7.85        2.42   262.11   0.653
  sub62                     12.03       0.00       0.00       0.96       8.54       0.00       8.54        2.63   273.68   0.710
  sub63                     12.03       0.00       0.00       3.49       6.87       0.00       6.87        2.08   239.63   0.571
  sub64                     12.03       0.00       0.00       1.80       7.43       0.00       7.43        2.26   211.47   0.618
  sub65                     12.03       0.00       0.00       1.56       7.55       0.00       7.55        2.32   215.23   0.628
  sub66                     12.03       0.00       0.00       3.49       6.37       0.00       6.37        1.95   191.04   0.530
  sub67                     12.03       0.00       0.00       0.96       9.00       0.00       9.00        2.78   332.67   0.749
  sub68                     12.03       0.00       0.00       1.68       8.26       0.00       8.26        2.54   285.76   0.687
  sub69                     12.03       0.00       0.00       1.80       8.55       0.00       8.55        2.00   265.64   0.711
  sub70                     12.03       8.73       0.00       6.95      11.44       0.11      11.55        2.64   261.84   0.556
  sub71                     12.03       0.00       0.00       0.96       8.33       0.00       8.33        1.97   195.24   0.692
  sub72                     12.03       0.00       0.00       0.84       6.67       0.00       6.67        1.36   105.11   0.555
  sub73                     12.03      11.24       0.00       7.83      12.57       0.08      12.65        2.97   255.46   0.544
  sub74                     12.03       0.00       0.00       9.02       2.55       0.00       2.55        1.02   143.98   0.212
  
  
  ******************
  Node Depth Summary
  ******************
  
  ---------------------------------------------------------------------------------
                                 Average  Maximum  Maximum  Time of Max    Reported
                                   Depth    Depth      HGL   Occurrence   Max Depth
  Node                 Type       Meters   Meters   Meters  days hr:min      Meters
  ---------------------------------------------------------------------------------
  WS02001211           JUNCTION     0.61     0.72     5.56     0  02:10        0.72
  WS02001212           JUNCTION     0.34     0.45     5.52     0  02:11        0.45
  WS02001213           JUNCTION     0.59     0.72     5.48     0  02:11        0.72
  WS02003069           JUNCTION     0.43     0.57     5.15     0  02:13        0.57
  WS02003072           JUNCTION     0.50     0.63     5.00     0  02:13        0.63
  WS02003073           JUNCTION     0.30     0.39     4.45     0  02:14        0.39
  WS02003060           JUNCTION     0.38     0.50     5.44     0  02:12        0.50
  WS02003066           JUNCTION     0.24     0.32     5.88     0  01:54        0.32
  WS02003059           JUNCTION     0.65     0.78     5.46     0  02:12        0.78
  WS02003067           JUNCTION     0.60     0.74     6.06     0  01:54        0.74
  WS02004401           JUNCTION     0.71     0.96     6.96     0  01:52        0.95
  WS02004402           JUNCTION     0.74     0.97     6.93     0  01:52        0.97
  WS02004403           JUNCTION     0.76     0.98     6.91     0  01:52        0.98
  WS02004404           JUNCTION     0.83     1.05     6.90     0  01:52        1.04
  WS02004406           JUNCTION     0.84     1.02     6.85     0  01:52        1.02
  WS02004409           JUNCTION     0.53     0.74     6.51     0  01:54        0.74
  WS02004410           JUNCTION     0.55     0.75     6.47     0  01:55        0.75
  WS02004411           JUNCTION     0.56     0.75     6.43     0  01:55        0.75
  WS02004412           JUNCTION     0.57     0.75     6.39     0  01:55        0.75
  WS02004413           JUNCTION     0.73     0.91     6.38     0  01:54        0.91
  WS02004405           JUNCTION     0.83     1.03     6.88     0  01:52        1.03
  WS02006109           JUNCTION     0.80     1.09     7.70     0  01:47        1.07
  WS02006110           JUNCTION     0.78     1.02     7.60     0  01:47        0.99
  WS02006111           JUNCTION     0.23     0.34     7.04     0  01:48        0.33
  WS02006112           JUNCTION     0.88     1.19     7.08     0  02:11        1.17
  WS02006113           JUNCTION     0.36     0.50     7.39     0  01:50        0.50
  WS02006115           JUNCTION     0.60     0.87     7.00     0  01:51        0.86
  WS02006116           JUNCTION     0.69     0.94     6.98     0  01:51        0.94
  WS02006230           JUNCTION     0.78     1.14     7.88     0  01:48        1.14
  WS02006231           JUNCTION     0.53     0.80     7.93     0  01:45        0.79
  WS02006232           JUNCTION     0.66     0.92     7.96     0  01:50        0.91
  WS02006234           JUNCTION     0.58     0.83     7.98     0  01:46        0.83
  WS02006235           JUNCTION     0.61     0.85     8.01     0  01:51        0.84
  WS02006238           JUNCTION     0.64     0.87     8.02     0  01:54        0.87
  WS02006240           JUNCTION     0.54     0.76     8.06     0  01:48        0.76
  WS02006242           JUNCTION     0.60     0.81     8.08     0  01:51        0.81
  WS02006243           JUNCTION     0.48     0.70     8.12     0  02:41        0.70
  WS02006245           JUNCTION     0.45     0.67     8.15     0  02:40        0.67
  WS02006247           JUNCTION     0.47     0.68     8.18     0  02:40        0.68
  WS02006248           JUNCTION     0.41     0.61     8.20     0  02:40        0.61
  WS02006249           JUNCTION     0.44     0.62     8.22     0  02:40        0.62
  WS02006239           JUNCTION     0.60     0.83     8.04     0  01:48        0.83
  WS02006251           JUNCTION     0.43     0.65     8.32     0  02:40        0.65
  WS02006252           JUNCTION     0.37     0.59     8.84     0  03:39        0.59
  WS02006253           JUNCTION     0.46     0.68     8.32     0  02:40        0.68
  WS02006256           JUNCTION     1.05     1.21     8.15     0  02:10        1.21
  WS02004138           JUNCTION     0.13     0.17     7.42     0  05:53        0.17
  WS02004407           JUNCTION     0.24     0.33     6.64     0  01:52        0.33
  WS02006228           JUNCTION     0.80     1.15     7.80     0  01:47        1.13
  WS02006229           JUNCTION     0.78     1.15     7.84     0  01:48        1.15
  WS02006280           JUNCTION     0.07     0.19     8.46     0  01:42        0.19
  WS02006284           JUNCTION     0.37     0.54     8.94     0  01:42        0.54
  WS02006287           JUNCTION     0.10     0.28     9.23     0  01:42        0.28
  WSF200               JUNCTION     0.24     0.34     5.57     0  01:54        0.34
  HS02004901           JUNCTION     0.13     0.28    10.10     0  01:39        0.28
  HS02004881           JUNCTION     0.01     0.03     9.06     0  01:43        0.03
  HS02004876           JUNCTION     0.05     0.12     9.15     0  01:43        0.12
  HS02004870           JUNCTION     0.02     0.06     9.35     0  01:43        0.06
  HS02004862           JUNCTION     0.02     0.07     9.45     0  01:44        0.07
  HS02004856           JUNCTION     0.08     0.12     9.55     0  01:44        0.12
  HS02004852           JUNCTION     0.01     0.04     9.56     0  01:52        0.04
  HS02004848           JUNCTION     0.01     0.04     9.64     0  01:51        0.04
  HS02004842           JUNCTION     0.33     0.37     9.64     0  01:51        0.37
  HS02004837           JUNCTION     0.03     0.06     9.64     0  01:51        0.06
  HS02004830           JUNCTION     0.04     0.08     9.55     0  01:45        0.08
  HS02004824           JUNCTION     0.02     0.06     9.46     0  01:54        0.06
  HS02004817           JUNCTION     0.44     0.59     9.43     0  01:43        0.59
  HS02004807           JUNCTION     0.13     0.26     9.43     0  01:43        0.26
  HS02004802           JUNCTION     0.17     0.30     9.42     0  01:43        0.29
  HS02004799           JUNCTION     0.13     0.33     9.54     0  01:40        0.33
  HS02004792           JUNCTION     0.04     0.14     9.66     0  01:40        0.14
  HS02004788           JUNCTION     0.03     0.10    10.00     0  01:40        0.10
  HS02004785           JUNCTION     0.05     0.17    10.07     0  01:40        0.17
  HS02004777           JUNCTION     0.15     0.30    10.10     0  01:39        0.30
  HS02004770           JUNCTION     0.12     0.27    10.10     0  01:39        0.27
  HS02004480           JUNCTION     0.09     0.27     9.51     0  01:41        0.27
  HS02004479           JUNCTION     0.12     0.30     9.51     0  01:40        0.30
  HS02004478           JUNCTION     0.07     0.18     9.41     0  01:42        0.18
  YS02001745           JUNCTION     0.72     0.88     8.39     0  03:01        0.88
  YS02001748           JUNCTION     1.12     2.27     9.35     0  02:06        1.32
  YS02001751           JUNCTION     1.31     2.18     9.06     0  02:05        1.52
  YS02001754           JUNCTION     1.56     2.15     8.75     0  02:05        1.81
  YS02001762           JUNCTION     1.76     2.08     8.48     0  02:08        2.02
  YS02001765           JUNCTION     1.72     2.01     8.46     0  02:08        1.97
  YS02001767           JUNCTION     1.68     1.96     8.45     0  02:08        1.92
  YS02001770           JUNCTION     1.68     1.95     8.44     0  02:08        1.90
  YS02001774           JUNCTION     1.75     2.01     8.43     0  02:08        1.97
  YS02001779           JUNCTION     1.49     1.68     8.37     0  02:05        1.68
  YS02001882           JUNCTION     0.53     1.38     8.09     0  02:30        1.37
  YS02001884           JUNCTION     0.62     1.48     8.10     0  02:29        1.46
  YS02001759           JUNCTION     1.80     2.11     8.47     0  02:08        2.06
  YS02001887           JUNCTION     0.70     1.55     8.09     0  02:30        1.54
  YS02001890           JUNCTION     0.73     1.58     8.09     0  02:31        1.57
  YS02001898           JUNCTION     0.50     1.34     8.07     0  02:29        1.33
  YS02001901           JUNCTION     0.62     1.46     8.07     0  02:32        1.45
  YS02001904           JUNCTION     0.60     1.43     8.06     0  02:28        1.42
  YS02001907           JUNCTION     0.92     1.77     8.06     0  02:30        1.76
  YS02001910           JUNCTION     0.71     1.56     8.07     0  02:30        1.55
  YS02001915           JUNCTION     0.51     1.35     8.07     0  02:30        1.35
  YS02001918           JUNCTION     0.26     1.00     8.06     0  02:31        0.99
  YS02001619           JUNCTION     1.28     1.61     8.54     0  02:03        1.47
  YS02001629           JUNCTION     1.63     1.85     8.40     0  02:03        1.84
  YS02001641           JUNCTION     1.73     1.97     8.40     0  02:09        1.96
  YS02001644           JUNCTION     1.74     1.92     8.35     0  02:09        1.92
  YS02001652           JUNCTION     1.58     2.16     8.76     0  02:25        1.98
  YS02001655           JUNCTION     1.34     2.20     9.05     0  02:28        2.05
  YS02001920           JUNCTION     0.36     1.06     8.06     0  02:21        1.05
  YS02001923           JUNCTION     0.20     0.80     8.06     0  02:30        0.80
  YS02001926           JUNCTION     0.24     0.62     8.07     0  02:30        0.62
  YS02001929           JUNCTION     0.12     0.37     8.07     0  02:30        0.37
  YS02001658           JUNCTION     1.06     2.30     9.44     0  02:27        2.09
  YS02001661           JUNCTION     0.83     2.46     9.86     0  02:27        2.18
  YS02001664           JUNCTION     0.36     0.57     8.50     0  02:22        0.56
  YS02001622           JUNCTION     1.30     1.62     8.52     0  02:03        1.49
  YS02001633           JUNCTION     1.72     1.99     8.44     0  02:09        1.93
  YS02001649           JUNCTION     1.77     2.05     8.44     0  02:22        2.05
  YS02001757           JUNCTION     1.89     2.21     8.47     0  02:08        2.16
  YS02001895           JUNCTION     0.49     1.34     8.08     0  02:32        1.32
  YS02001625           JUNCTION     1.58     1.78     8.38     0  02:03        1.78
  YS02163301           JUNCTION     1.66     1.93     8.44     0  02:08        1.87
  YS02163601           JUNCTION     1.77     2.04     8.44     0  02:09        2.00
  YS02164001           JUNCTION     1.71     1.97     8.43     0  02:09        1.95
  YS02001647           JUNCTION     1.56     1.81     8.42     0  02:10        1.79
  YSB1154              JUNCTION     0.26     0.45     9.51     0  01:40        0.45
  YSB6556              JUNCTION     0.16     0.34     9.51     0  01:40        0.34
  YSB1174              JUNCTION     0.22     0.40     9.51     0  01:41        0.40
  YSB1171              JUNCTION     0.41     0.61     9.51     0  01:40        0.61
  YS02006553           JUNCTION     0.93     1.77     8.05     0  02:28        1.75
  YS02006561           JUNCTION     0.31     0.93     7.59     0  02:29        0.92
  YS02006556           JUNCTION     0.89     1.72     8.03     0  02:28        1.71
  YS02006558           JUNCTION     0.94     1.75     8.02     0  02:30        1.74
  YS02001783           JUNCTION     0.55     1.78     7.92     0  01:55        1.59
  YS02001784           JUNCTION     0.57     2.27     8.34     0  01:55        1.83
  YS02001786           JUNCTION     0.52     1.74     7.77     0  01:55        1.17
  YS02001788           JUNCTION     0.47     1.97     7.94     0  01:55        1.06
  YS02001790           JUNCTION     0.61     1.96     7.60     0  01:53        1.24
  YS02001791           JUNCTION     0.62     1.61     7.08     0  01:55        1.25
  YS02001793           JUNCTION     0.90     2.66     7.49     0  01:51        1.80
  WS02004139           JUNCTION     0.54     0.66     5.57     0  02:10        0.66
  WSC                  OUTFALL      0.30     0.39     1.06     0  02:14        0.39
  3                    OUTFALL      0.09     0.21     6.21     0  02:10        0.21
  4                    OUTFALL      0.02     0.12     7.12     0  02:40        0.12
  5                    OUTFALL      0.00     0.00     5.00     0  00:00        0.00
  JK-storage           STORAGE      3.76     5.80     6.60     0  01:54        5.80
  CC-storage           STORAGE      1.12     1.38     8.38     0  04:02        1.38
  XR-storage           STORAGE      7.63     7.72     5.72     0  01:08        7.72
  
  
  *******************
  Node Inflow Summary
  *******************
  
  -------------------------------------------------------------------------------------------------
                                  Maximum  Maximum                  Lateral       Total        Flow
                                  Lateral    Total  Time of Max      Inflow      Inflow     Balance
                                   Inflow   Inflow   Occurrence      Volume      Volume       Error
  Node                 Type           LPS      LPS  days hr:min    10^6 ltr    10^6 ltr     Percent
  -------------------------------------------------------------------------------------------------
  WS02001211           JUNCTION      7.35   293.07     0  07:49       0.207        5.22       0.787
  WS02001212           JUNCTION      0.00   293.56     0  07:49           0        5.18       0.432
  WS02001213           JUNCTION      0.00   294.02     0  07:49           0        5.16       0.440
  WS02003069           JUNCTION      0.32   905.53     0  02:12     0.00902        14.3       0.224
  WS02003072           JUNCTION      0.00   905.11     0  02:13           0        14.3       0.270
  WS02003073           JUNCTION      1.82   906.61     0  02:13      0.0514        14.3       0.309
  WS02003060           JUNCTION     16.53   905.26     0  02:12       0.466        14.4       0.210
  WS02003066           JUNCTION      0.00   646.78     0  01:54           0        8.79       0.053
  WS02003059           JUNCTION      0.00   294.89     0  07:48           0        5.15       0.820
  WS02003067           JUNCTION      0.00   646.53     0  01:54           0         8.8       0.109
  WS02004401           JUNCTION      0.00   653.16     0  01:52           0        9.04       0.242
  WS02004402           JUNCTION      0.00   653.22     0  01:52           0        9.02       0.228
  WS02004403           JUNCTION      0.00   651.98     0  01:52           0           9       0.207
  WS02004404           JUNCTION      0.16   649.48     0  01:52     0.00457        8.99       0.156
  WS02004406           JUNCTION      0.00   649.38     0  01:52           0        8.95       0.379
  WS02004409           JUNCTION      0.00   649.33     0  01:52           0        8.91       0.191
  WS02004410           JUNCTION      0.00   648.18     0  01:53           0        8.89       0.216
  WS02004411           JUNCTION      0.00   647.47     0  01:53           0        8.87       0.221
  WS02004412           JUNCTION      0.00   647.16     0  01:53           0        8.85       0.238
  WS02004413           JUNCTION      0.00   646.74     0  01:54           0        8.83       0.350
  WS02004405           JUNCTION      0.04   649.76     0  01:52     0.00107        8.97       0.234
  WS02006109           JUNCTION      1.23   636.49     0  01:47      0.0347         9.1       0.236
  WS02006110           JUNCTION      0.00   636.43     0  01:49           0        9.08       0.221
  WS02006111           JUNCTION      0.00   668.35     0  01:50           0        9.05       0.050
  WS02006112           JUNCTION     14.90   655.15     0  01:51      0.0621        9.11       0.327
  WS02006113           JUNCTION      0.00   639.34     0  01:47           0        9.06       0.109
  WS02006115           JUNCTION      0.00   657.14     0  01:49           0        9.08       0.227
  WS02006116           JUNCTION      0.00   654.28     0  01:51           0        9.06       0.216
  WS02006230           JUNCTION     10.28   399.34     0  05:02        0.29        7.25       0.199
  WS02006231           JUNCTION      0.00   390.40     0  05:01           0        6.97       0.143
  WS02006232           JUNCTION      0.00   390.52     0  05:01           0        6.98       0.235
  WS02006234           JUNCTION      0.00   392.94     0  05:01           0        6.99       0.120
  WS02006235           JUNCTION      0.00   393.84     0  05:01           0        7.03       0.152
  WS02006238           JUNCTION      0.00   344.45     0  05:40           0        5.14       0.150
  WS02006240           JUNCTION      0.00   340.25     0  03:40           0        5.13       0.229
  WS02006242           JUNCTION      0.00   336.59     0  03:41           0        5.13       0.289
  WS02006243           JUNCTION      0.00   339.92     0  07:01           0        5.12      -0.051
  WS02006245           JUNCTION      0.00   343.26     0  07:01           0        5.13       0.188
  WS02006247           JUNCTION      0.00   347.28     0  07:01           0        5.14       0.133
  WS02006248           JUNCTION      0.00   352.10     0  07:00           0        5.14       0.059
  WS02006249           JUNCTION      0.00   428.02     0  02:40           0        5.56       0.213
  WS02006239           JUNCTION      0.00   342.67     0  05:40           0        5.13       0.203
  WS02006251           JUNCTION      0.08   429.17     0  02:40     0.00217         5.6       0.153
  WS02006252           JUNCTION      0.00   400.00     0  03:30           0        5.21       0.009
  WS02006253           JUNCTION      2.03    76.41     0  01:43     0.00803       0.389       0.951
  WS02006256           JUNCTION      0.00   600.00     0  02:10           0        5.77       0.056
  WS02004138           JUNCTION      0.00   285.00     0  05:50           0        5.04       0.049
  WS02004407           JUNCTION      0.00   650.19     0  01:52           0        8.92       0.085
  WS02006228           JUNCTION      0.00   635.30     0  01:47           0        9.09       0.166
  WS02006229           JUNCTION      0.00   634.14     0  01:48           0         9.1       0.149
  WS02006280           JUNCTION      0.00   366.28     0  01:42           0        1.87       0.003
  WS02006284           JUNCTION      0.10   366.31     0  01:42      0.0027        1.87       0.028
  WS02006287           JUNCTION      0.00   366.22     0  01:42           0        1.87       0.038
  WSF200               JUNCTION      0.00   646.89     0  01:54           0        8.79       0.049
  HS02004901           JUNCTION     18.12    18.12     0  01:36      0.0747      0.0749       2.402
  HS02004881           JUNCTION      7.67    74.61     0  01:43      0.0326       0.352       0.119
  HS02004876           JUNCTION     13.40    67.33     0  01:43      0.0628        0.32       0.168
  HS02004870           JUNCTION     14.05    54.07     0  01:43      0.0618       0.257       0.041
  HS02004862           JUNCTION     12.60    40.56     0  01:44      0.0678       0.196       0.087
  HS02004856           JUNCTION     10.50    27.98     0  01:43      0.0465       0.129       1.122
  HS02004852           JUNCTION      0.00    17.93     0  01:51           0      0.0829       0.064
  HS02004848           JUNCTION     27.80    27.80     0  01:53       0.149       0.149       0.029
  HS02004842           JUNCTION      0.00    10.09     0  01:58           0      0.0794      19.594
  HS02004837           JUNCTION     29.79    38.22     0  01:51       0.287       0.353       0.229
  HS02004830           JUNCTION      0.15    38.36     0  01:51     0.00423       0.344       0.361
  HS02004824           JUNCTION     33.49    71.74     0  01:54       0.195       0.538       0.100
  HS02004817           JUNCTION      0.60    72.33     0  01:54      0.0169       0.554       3.103
  HS02004807           JUNCTION     26.14    95.63     0  01:52       0.114       0.651       0.672
  HS02004802           JUNCTION      0.00    95.92     0  01:53           0       0.649       0.614
  HS02004799           JUNCTION     20.64   230.90     0  01:40      0.0921        1.05       0.258
  HS02004792           JUNCTION     88.99   210.33     0  01:39       0.391       0.955       0.041
  HS02004788           JUNCTION     29.98   122.04     0  01:40       0.175       0.565       0.069
  HS02004785           JUNCTION      0.15    92.14     0  01:39     0.00423       0.391       0.126
  HS02004777           JUNCTION      0.03    92.19     0  01:38    0.000846       0.391       1.344
  HS02004770           JUNCTION     74.74    92.54     0  01:38        0.32       0.393       0.790
  HS02004480           JUNCTION      0.00   273.94     0  01:41           0        1.24       0.088
  HS02004479           JUNCTION      0.00    43.16     0  01:41           0       0.201       0.365
  HS02004478           JUNCTION      0.00   366.17     0  01:42           0        1.87       0.020
  YS02001745           JUNCTION    221.95   432.85     0  02:06        2.35        2.36       0.431
  YS02001748           JUNCTION      0.04   615.23     0  02:07     0.00127        2.35       0.956
  YS02001751           JUNCTION      0.01   366.21     0  02:00     0.00031        2.31       1.020
  YS02001754           JUNCTION      0.26   250.35     0  02:07     0.00733         2.3       1.076
  YS02001762           JUNCTION      0.00   276.88     0  02:12           0        1.88       1.128
  YS02001765           JUNCTION      0.00   275.98     0  02:12           0        1.88       1.302
  YS02001767           JUNCTION      0.54   275.26     0  02:26      0.0151         1.9       1.905
  YS02001770           JUNCTION    273.83   280.33     0  03:01        2.63        2.67       1.197
  YS02001774           JUNCTION      0.00   281.15     0  03:01           0       0.794       3.259
  YS02001779           JUNCTION      0.01   281.75     0  03:01    0.000141       0.763       2.089
  YS02001882           JUNCTION      0.00    30.42     0  01:56           0      0.0195      11.968
  YS02001884           JUNCTION      0.00    60.03     0  01:56           0      0.0569      11.232
  YS02001759           JUNCTION    262.15   538.44     0  02:12        2.42        4.23       0.541
  YS02001887           JUNCTION    333.12   347.95     0  01:57        2.79        2.82       0.286
  YS02001890           JUNCTION      0.00   341.99     0  02:11           0        2.77       0.315
  YS02001898           JUNCTION      0.00   344.69     0  02:10           0        2.76       0.097
  YS02001901           JUNCTION      0.00   345.62     0  02:10           0        2.76       0.235
  YS02001904           JUNCTION      0.00   344.94     0  02:10           0        2.76       0.213
  YS02001907           JUNCTION      0.00   620.28     0  02:33           0        6.14       0.388
  YS02001910           JUNCTION      0.00   320.20     0  03:05           0        3.39       0.335
  YS02001915           JUNCTION    195.26   315.31     0  03:03        1.97         3.4       0.164
  YS02001918           JUNCTION      0.00   132.78     0  02:53           0        1.43       0.123
  YS02001619           JUNCTION    191.04   191.04     0  02:29        1.95        1.95       0.624
  YS02001629           JUNCTION      0.00   197.46     0  02:01           0        1.79       1.605
  YS02001641           JUNCTION      0.00   399.62     0  02:20           0        4.01       0.521
  YS02001644           JUNCTION    211.51   987.71     0  02:59        2.26        8.08       0.320
  YS02001652           JUNCTION      0.00   315.50     0  02:04           0        2.03       1.105
  YS02001655           JUNCTION      0.15   438.93     0  01:58     0.00434        2.06       1.258
  YS02001920           JUNCTION      2.87   131.60     0  02:52      0.0809        1.44       0.187
  YS02001923           JUNCTION      0.04   115.94     0  02:51     0.00106        1.36       0.053
  YS02001926           JUNCTION      0.05   122.06     0  02:52     0.00147        1.36       0.221
  YS02001929           JUNCTION    105.11   105.11     0  02:59        1.36        1.36       0.036
  YS02001658           JUNCTION      0.00   604.92     0  02:04           0        2.09       1.117
  YS02001661           JUNCTION      0.00   639.90     0  02:23           0        2.79      -0.188
  YS02001664           JUNCTION    239.63   372.83     0  02:22        2.08        2.79       0.196
  YS02001622           JUNCTION      0.00   191.31     0  02:28           0        1.94       1.651
  YS02001633           JUNCTION    215.43   398.44     0  02:20        2.33        4.07       0.788
  YS02001649           JUNCTION      0.00   848.14     0  02:20           0        5.17       0.716
  YS02001757           JUNCTION      0.00  1576.01     0  02:19           0        9.71       0.957
  YS02001895           JUNCTION      0.00   342.18     0  02:11           0        2.77       0.179
  YS02001625           JUNCTION      0.00   197.82     0  02:01           0        1.91       2.081
  YS02163301           JUNCTION      0.00   208.94     0  02:04           0        1.78       1.356
  YS02163601           JUNCTION      0.11   398.89     0  02:20      0.0031        4.02       0.749
  YS02164001           JUNCTION      0.00   399.09     0  02:20           0           4       0.492
  YS02001647           JUNCTION      0.00   605.60     0  02:20           0        4.12       0.679
  YSB1154              JUNCTION     23.84    23.84     0  01:41       0.112       0.113       1.299
  YSB6556              JUNCTION      0.00    24.02     0  01:41           0       0.113       1.116
  YSB1174              JUNCTION     19.99    19.99     0  01:36       0.081      0.0815       1.597
  YSB1171              JUNCTION      0.00    43.59     0  01:40           0         0.2       3.266
  YS02006553           JUNCTION      0.00   620.26     0  02:33           0        6.13       0.249
  YS02006561           JUNCTION      0.00   900.09     0  02:30           0        8.64       0.008
  YS02006556           JUNCTION      0.00   620.18     0  02:32           0        6.14       0.180
  YS02006558           JUNCTION    286.64   900.56     0  02:31        2.56        8.67       0.058
  YS02001783           JUNCTION      0.00   900.29     0  02:30           0        8.64       0.025
  YS02001784           JUNCTION      1.06   901.32     0  02:30      0.0299        8.66       0.038
  YS02001786           JUNCTION      0.06   901.30     0  02:30     0.00159        8.66       0.036
  YS02001788           JUNCTION      0.07   901.50     0  02:30       0.002        8.66       0.021
  YS02001790           JUNCTION      0.15   901.60     0  02:30     0.00437        8.66       0.025
  YS02001791           JUNCTION      0.00   901.71     0  02:30           0        8.66       0.013
  YS02001793           JUNCTION      0.00   901.76     0  02:30           0        8.67       0.001
  WS02004139           JUNCTION      0.32   285.32     0  05:53     0.00905        5.05       0.676
  WSC                  OUTFALL       0.00   906.12     0  02:14           0        14.3       0.000
  3                    OUTFALL       0.00   521.58     0  02:10           0        3.84       0.000
  4                    OUTFALL       0.00   142.80     0  02:40           0       0.413       0.000
  5                    OUTFALL       0.00     0.00     0  00:00           0           0       0.000 ltr
  JK-storage           STORAGE       0.00   944.08     0  01:51           0        8.82      -2.555
  CC-storage           STORAGE       0.00  1576.06     0  02:19           0        8.71       0.711
  XR-storage           STORAGE     560.10   560.10     0  02:30        9.63        10.2      -0.000
  
  
  **********************
  Node Surcharge Summary
  **********************
  
  Surcharging occurs when water rises above the top of the highest conduit.
  ---------------------------------------------------------------------
                                               Max. Height   Min. Depth
                                   Hours       Above Crown    Below Rim
  Node                 Type      Surcharged         Meters       Meters
  ---------------------------------------------------------------------
  WS02004404           JUNCTION        0.51          0.047        2.733
  WS02004406           JUNCTION        0.29          0.021        2.429
  WS02004405           JUNCTION        0.40          0.034        2.766
  WS02006109           JUNCTION        2.40          0.266        1.554
  WS02006110           JUNCTION        1.07          0.110        1.740
  WS02006112           JUNCTION        1.27          0.195        1.485
  WS02006230           JUNCTION        0.46          0.059        1.511
  WS02006231           JUNCTION        0.62          0.093        1.437
  WS02006232           JUNCTION        2.45          0.218        1.262
  WS02006234           JUNCTION        1.09          0.106        1.134
  WS02006235           JUNCTION        1.53          0.137        1.153
  WS02006238           JUNCTION        1.77          0.152        1.278
  WS02006240           JUNCTION        0.82          0.053        1.337
  WS02006242           JUNCTION        1.52          0.083        0.737
  WS02006239           JUNCTION        1.18          0.086        1.204
  WS02006252           JUNCTION        2.31          0.193        0.907
  WS02006228           JUNCTION        2.30          0.316        1.884
  YS02001748           JUNCTION        5.58          1.190        0.000
  YS02001751           JUNCTION        5.77          1.182        0.018
  YS02001754           JUNCTION        5.97          1.097        0.053
  YS02001762           JUNCTION        6.14          1.082        0.068
  YS02001765           JUNCTION        6.13          1.008        0.092
  YS02001767           JUNCTION        6.13          0.961        0.069
  YS02001770           JUNCTION        6.11          0.920        0.000
  YS02001774           JUNCTION        6.14          1.007        0.043
  YS02001779           JUNCTION        5.95          0.680        0.000
  YS02001882           JUNCTION        0.94          0.377        0.453
  YS02001884           JUNCTION        0.99          0.418        0.452
  YS02001759           JUNCTION        6.15          1.105        0.105
  YS02001887           JUNCTION        1.11          0.503        0.447
  YS02001890           JUNCTION        1.15          0.532        0.228
  YS02001898           JUNCTION        0.85          0.308        0.432
  YS02001901           JUNCTION        1.06          0.461        0.409
  YS02001904           JUNCTION        1.03          0.431        0.419
  YS02001907           JUNCTION        1.70          0.763        0.187
  YS02001910           JUNCTION        1.21          0.562        0.538
  YS02001915           JUNCTION        0.91          0.355        0.645
  YS02001619           JUNCTION        5.78          0.610        0.000
  YS02001629           JUNCTION        5.80          0.470        0.000
  YS02001641           JUNCTION        6.13          0.966        0.134
  YS02001644           JUNCTION        6.13          0.920        0.000
  YS02001652           JUNCTION        6.03          1.130        0.000
  YS02001655           JUNCTION        5.81          1.200        0.000
  YS02001920           JUNCTION        0.27          0.057        1.083
  YS02001658           JUNCTION        5.63          1.300        0.000
  YS02001661           JUNCTION        0.22          1.390        0.000
  YS02001622           JUNCTION        5.82          0.620        0.000
  YS02001633           JUNCTION        6.12          0.967        0.093
  YS02001649           JUNCTION        6.15          1.050        0.000
  YS02001757           JUNCTION        6.19          1.210        0.000
  YS02001895           JUNCTION        0.88          0.336        0.414
  YS02001625           JUNCTION        6.09          0.780        0.000
  YS02163301           JUNCTION        6.11          0.926        0.104
  YS02163601           JUNCTION        6.15          1.041        0.039
  YS02164001           JUNCTION        6.12          0.969        0.131
  YS02001647           JUNCTION        6.07          0.811        0.089
  YS02006553           JUNCTION        1.75          0.767        0.423
  YS02006561           JUNCTION        0.62          0.128        1.022
  YS02006556           JUNCTION        1.44          0.677        0.673
  YS02006558           JUNCTION        1.41          0.653        0.747
  YS02001783           JUNCTION        1.53          0.983        0.617
  YS02001784           JUNCTION        1.60          1.469        0.021
  YS02001786           JUNCTION        1.54          0.936        0.494
  YS02001788           JUNCTION        1.53          1.167        0.313
  YS02001790           JUNCTION        2.72          1.157        0.000
  YS02001791           JUNCTION        2.84          0.810        1.110
  YS02001793           JUNCTION        3.18          1.660        0.940
  
  
  *********************
  Node Flooding Summary
  *********************
  
  Flooding refers to all water that overflows a node, whether it ponds or not.
  --------------------------------------------------------------------------
                                                             Total   Maximum
                                 Maximum   Time of Max       Flood    Ponded
                        Hours       Rate    Occurrence      Volume     Depth
  Node                 Flooded       LPS   days hr:min    10^6 ltr    Meters
  --------------------------------------------------------------------------
  YS02001748              0.01    227.88      0  02:08       0.000     0.000
  YS02001770              0.01      5.95      0  02:08       0.000     0.000
  YS02001779              2.45    281.72      0  03:01       0.743     0.000
  YS02001619              0.01     29.28      0  02:05       0.000     0.000
  YS02001629              0.01     35.78      0  02:05       0.001     0.000
  YS02001644              4.09    987.70      0  02:59       5.758     0.000
  YS02001652              0.01     11.99      0  02:25       0.000     0.000
  YS02001655              0.01     16.14      0  02:33       0.000     0.000
  YS02001658              0.01      6.81      0  02:27       0.000     0.000
  YS02001661              0.01    136.26      0  02:27       0.001     0.000
  YS02001622              0.01     37.81      0  02:03       0.000     0.000
  YS02001649              0.08     42.70      0  02:28       0.005     0.000
  YS02001757              0.01     17.33      0  02:08       0.000     0.000
  YS02001625              0.91     48.40      0  02:31       0.099     0.000
  YS02001790              0.01    104.86      0  01:53       0.000     0.000
  JK-storage              2.28    821.27      0  03:00       3.271     0.000
  XR-storage              5.66    555.00      0  02:40       4.334     0.000
  
  
  **********************
  Storage Volume Summary
  **********************
  
  --------------------------------------------------------------------------------------------------
                         Average     Avg  Evap Exfil       Maximum     Max    Time of Max    Maximum
                          Volume    Pcnt  Pcnt  Pcnt        Volume    Pcnt     Occurrence    Outflow
  Storage Unit           1000 m3    Full  Loss  Loss       1000 m3    Full    days hr:min        LPS
  --------------------------------------------------------------------------------------------------
  JK-storage               0.189      65     0     0         0.291     100       0  01:54     600.00
  CC-storage               3.129      20     0     0         3.835      24       0  04:02     400.00
  XR-storage               0.916      99     0     0         0.926     100       0  01:08     285.00
  
  
  ***********************
  Outfall Loading Summary
  ***********************
  
  -----------------------------------------------------------
                         Flow       Avg       Max       Total
                         Freq      Flow      Flow      Volume
  Outfall Node           Pcnt       LPS       LPS    10^6 ltr
  -----------------------------------------------------------
  WSC                   99.99    573.54    906.12      14.261
  3                     79.25    219.44    521.58       3.844
  4                     43.66     37.82    142.80       0.413
  5                      0.00      0.00      0.00       0.000
  -----------------------------------------------------------
  System                55.73    830.80   1452.68      18.518
  
  
  ********************
  Link Flow Summary
  ********************
  
  -----------------------------------------------------------------------------
                                 Maximum  Time of Max   Maximum    Max/    Max/
                                  |Flow|   Occurrence   |Veloc|    Full    Full
  Link                 Type          LPS  days hr:min     m/sec    Flow   Depth
  -----------------------------------------------------------------------------
  WS02003066WSF200     CONDUIT    646.89     0  01:54      2.86    0.11    0.25
  WS02006287WS02006284 CONDUIT    366.21     0  01:42      1.96    0.17    0.29
  WS02006284WS02006280 CONDUIT    366.28     0  01:42      2.20    0.15    0.26
  WS02006280WS02006229 CONDUIT    366.28     0  01:42      3.55    0.08    0.19
  WS02006229WS02006228 CONDUIT    635.30     0  01:47      1.26    2.10    1.00
  WS02006256WS02006235 CONDUIT    166.25     0  00:01      2.58    1.76    1.00
  WS02006253WS02006251 CONDUIT     75.27     0  01:43      0.58    0.23    0.94
  WS02006252WS02006251 CONDUIT    400.62     0  05:37      3.19    1.47    1.00
  WS02006251WS02006249 CONDUIT    428.02     0  02:40      1.17    1.23    0.91
  WS02006249WS02006248 CONDUIT    352.10     0  07:00      1.16    1.93    0.87
  WS02006248WS02006247 CONDUIT    347.28     0  07:01      1.12    0.76    0.91
  WS02006247WS02006245 CONDUIT    343.26     0  07:01      1.09    2.72    0.95
  WS02006245WS02006243 CONDUIT    339.92     0  07:01      1.10    1.01    0.97
  WS02006243WS02006242 CONDUIT    336.59     0  03:41      1.00    0.72    1.00
  WS02006242WS02006240 CONDUIT    340.25     0  03:40      0.96    1.35    1.00
  WS02006240WS02006239 CONDUIT    342.67     0  05:40      1.00    1.08    1.00
  WS02006239WS02006238 CONDUIT    344.45     0  05:40      0.93    1.10    1.00
  WS02006238WS02006235 CONDUIT    344.37     0  05:40      1.25    0.77    1.00
  WS02006235WS02006234 CONDUIT    392.94     0  05:01      1.03    4.15    1.00
  WS02006234WS02006232 CONDUIT    390.52     0  05:01      1.13    0.79    1.00
  WS02006232WS02006231 CONDUIT    390.40     0  05:01      1.06    0.82    1.00
  WS02006231WS02006230 CONDUIT    389.06     0  05:02      1.34    5.90    1.00
  WS02006230WS02006229 CONDUIT    398.95     0  05:02      1.04    8.88    1.00
  WS02006228WS02006109 CONDUIT    635.26     0  01:47      1.26    2.78    1.00
  WS02006116WS02004401 CONDUIT    653.16     0  01:52      0.85    0.90    0.95
  WS02006115WS02006116 CONDUIT    654.28     0  01:51      0.91    0.84    0.87
  WS02006113WS02006111 CONDUIT    668.35     0  01:50      2.59    0.80    0.52
  WS02006112WS02006115 CONDUIT    657.14     0  01:49      0.87    0.39    0.93
  WS02006111WS02006112 CONDUIT    642.38     0  01:51      1.71    0.31    0.70
  WS02006110WS02006113 CONDUIT    639.34     0  01:47      1.47    0.58    0.81
  WS02006109WS02006110 CONDUIT    636.43     0  01:49      1.27    1.22    1.00
  WS02004411WS02004412 CONDUIT    647.16     0  01:53      1.02    0.92    0.75
  WS02004401WS02004402 CONDUIT    653.22     0  01:52      0.84    0.78    0.96
  WS02004413WS02003067 CONDUIT    646.53     0  01:54      1.23    0.28    0.63
  WS02004412WS02004413 CONDUIT    646.74     0  01:54      0.93    0.43    0.83
  WS02004410WS02004411 CONDUIT    647.47     0  01:53      1.02    0.88    0.75
  WS02004409WS02004410 CONDUIT    648.18     0  01:53      1.03    0.84    0.75
  WS02004407WS02004409 CONDUIT    649.33     0  01:52      1.53    0.23    0.53
  WS02004406WS02004407 CONDUIT    650.19     0  01:52      1.18    0.29    0.66
  WS02004405WS02004406 CONDUIT    649.38     0  01:52      0.83    1.28    1.00
  WS02004404WS02004405 CONDUIT    649.72     0  01:52      0.84    6.37    1.00
  WS02004403WS02004404 CONDUIT    649.32     0  01:52      0.83    0.47    0.99
  WS02004402WS02004403 CONDUIT    651.98     0  01:52      0.84    0.94    0.98
  WS02004139WS02001211 CONDUIT    285.73     0  07:49      0.50    0.36    0.53
  WS02004138WS02004139 CONDUIT    285.00     0  05:53      1.27    0.06    0.39
  WS02003067WS02003066 CONDUIT    646.78     0  01:54      1.34    0.21    0.44
  WS02001213WS02003059 CONDUIT    294.89     0  07:48      0.53    0.49    0.74
  WS02001212WS02001213 CONDUIT    294.02     0  07:49      1.17    0.45    0.42
  WS02001211WS02001212 CONDUIT    293.56     0  07:49      0.66    0.22    0.59
  WS02003072WS02003073 CONDUIT    904.79     0  02:13      1.70    1.95    0.48
  WS02003069WS02003072 CONDUIT    905.11     0  02:13      1.60    0.44    0.50
  WS02003060WS02003069 CONDUIT    905.21     0  02:12      1.85    0.35    0.45
  WS02003059WS02003060 CONDUIT    296.13     0  07:47      0.69    0.19    0.64
  HS02004901HS02004770 CONDUIT     17.82     0  01:38      0.06    0.07    0.40
  HS02004876HS02004881 CONDUIT     67.33     0  01:43      0.89    0.72    0.11
  HS02004870HS02004876 CONDUIT     54.05     0  01:43      0.61    0.04    0.13
  HS02004842HS02004848 CONDUIT     10.09     0  01:58      0.05    0.01    0.30
  HS02004837HS02004842 CONDUIT     10.33     0  02:00      0.41    0.01    0.31
  HS02004830HS02004837 CONDUIT     38.21     0  01:51      0.54    0.04    0.10
  HS02004824HS02004830 CONDUIT     38.37     0  01:52      0.57    0.05    0.10
  HS02004817HS02004824 CONDUIT     71.73     0  01:54      0.22    0.03    0.46
  HS02004770HS02004777 CONDUIT     92.16     0  01:38      0.32    0.17    0.41
  HS02004799HS02004480 CONDUIT    230.85     0  01:40      0.78    0.29    0.42
  HS02004792HS02004799 CONDUIT    210.29     0  01:40      0.89    0.13    0.34
  HS02004788HS02004792 CONDUIT    122.00     0  01:40      1.02    0.08    0.17
  HS02004785HS02004788 CONDUIT     92.09     0  01:40      0.67    0.69    0.20
  HS02004777HS02004785 CONDUIT     91.99     0  01:39      0.39    0.11    0.34
  HS02004480HS02004478 CONDUIT    273.63     0  01:41      1.21    1.15    0.32
  HS02004479HS02004480 CONDUIT     43.48     0  01:42      0.30    0.04    0.41
  HS02004862HS02004870 CONDUIT     40.54     0  01:45      0.62    0.04    0.09
  HS02004848HS02004852 CONDUIT     17.93     0  01:51      0.42    0.02    0.06
  HS02004856HS02004862 CONDUIT     27.96     0  01:44      0.46    0.03    0.09
  HS02004852HS02004856 CONDUIT     17.92     0  01:52      0.22    0.02    0.12
  HS02004802HS02004478 CONDUIT     96.20     0  01:53      0.42    0.08    0.34
  HS02004478WS02006287 CONDUIT    366.22     0  01:42      1.67    0.10    0.24
  HS02004817HS02004807 CONDUIT     72.77     0  01:55      0.17    0.04    0.61
  HS02004807HS02004802 CONDUIT     95.92     0  01:53      0.36    0.18    0.39
  YS02001759YS02001757 CONDUIT    538.88     0  02:12      0.69    0.38    1.00
  YS02001762YS02001759 CONDUIT    277.80     0  02:12      0.35    0.32    1.00
  YS02001765YS02001762 CONDUIT    276.88     0  02:12      0.35    0.26    1.00
  YS02001770YS02001767 CONDUIT    274.72     0  02:26      0.42    1.09    1.00
  YS02001774YS02001770 CONDUIT    281.15     0  03:01      0.36    0.18    1.00
  YS02001779YS02001774 CONDUIT    281.75     0  03:01      0.36    0.14    1.00
  YS02001649YS02001757 CONDUIT    848.00     0  02:20      1.08    0.51    1.00
  YS02001767YS02001765 CONDUIT    275.98     0  02:12      0.38    0.35    1.00
  YS02006561YS02001783 CONDUIT    900.29     0  02:30      2.11    0.47    1.00
  YS02001783YS02001784 CONDUIT    900.26     0  02:30      1.79    1.24    1.00
  YS02001784YS02001785 CONDUIT    901.25     0  02:30      1.79    2.10    1.00
  YS02001788YS02001790 CONDUIT    901.45     0  02:30      2.28    0.66    1.00
  YS02001790YS02001791 CONDUIT    901.71     0  02:30      2.75    0.98    1.00
  YS02001791YS02001793 CONDUIT    901.76     0  02:30      5.40    0.39    1.00
  YS02001910YS02001907 CONDUIT    320.24     0  03:04      0.49    0.18    1.00
  YS02001786YS02001788 CONDUIT    901.43     0  02:30      2.19    1.74    1.00
  YS02001915YS02001910 CONDUIT    320.20     0  03:05      0.58    0.16    1.00
  YS02001918YS02001915 CONDUIT    144.17     0  03:07      0.44    0.08    1.00
  YS02001923YS02001920 CONDUIT    128.73     0  02:52      0.68    0.06    0.90
  YS02001926YS02001923 CONDUIT    115.90     0  02:51      0.78    0.17    0.61
  YS02001929YS02001926 CONDUIT    122.01     0  02:52      0.83    0.06    0.49
  YS02001920YS02001918 CONDUIT    132.78     0  02:53      0.67    0.13    1.00
  YS02001629YS02163301 CONDUIT    208.94     0  02:04      0.27    0.26    1.00
  YS02001619YS02001622 CONDUIT    191.31     0  02:28      0.73    0.28    1.00
  YS02001622YS02001625 CONDUIT    197.82     0  02:01      0.36    0.11    1.00
  YS02001625YS02001629 CONDUIT    197.46     0  02:01      0.30    0.09    1.00
  YS02163301YS02001633 CONDUIT    208.94     0  02:04      0.27    0.20    1.00
  YS02163601YS02164001 CONDUIT    399.09     0  02:20      0.51    0.35    1.00
  YS02164001YS02001641 CONDUIT    399.62     0  02:20      0.51    0.55    1.00
  YS02001641YS02001644 CONDUIT    399.93     0  02:20      0.51    1.29    1.00
  YS02001647YS02001649 CONDUIT    605.83     0  02:20      0.77    0.32    1.00
  YS02006553YS02006556 CONDUIT    620.18     0  02:32      0.79    0.53    1.00
  YS02006556YS02006558 CONDUIT    620.28     0  02:33      0.79    0.49    1.00
  YSB6556YSB1171       CONDUIT     24.43     0  01:43      0.09    0.03    0.68
  YS02001907YS02006553 CONDUIT    620.26     0  02:33      0.69    0.73    1.00
  YS02006558YS02006561 CONDUIT    900.09     0  02:30      3.18    1.99    1.00
  YS02001633YS02163601 CONDUIT    398.78     0  02:20      0.51    0.42    1.00
  YS02001644YS02001647 CONDUIT    605.60     0  02:20      0.77    0.36    1.00
  YS02001745YS02001748 CONDUIT    615.18     0  02:07      1.65    0.24    0.94
  YS02001748YS02001751 CONDUIT    366.20     0  02:00      1.23    0.18    1.00
  YS02001751YS02001754 CONDUIT    250.09     0  02:07      1.05    0.12    1.00
  YS02001754YS02001757 CONDUIT    250.51     0  02:07      0.33    0.10    1.00
  YS02001882YS02001884 CONDUIT     30.42     0  01:56      0.15    0.03    1.00
  YS02001884YS02001887 CONDUIT     60.03     0  01:56      0.11    0.08    1.00
  YS02001890YS02001895 CONDUIT    342.18     0  02:11      0.47    0.16    1.00
  YS02001895YS02001898 CONDUIT    344.69     0  02:10      0.60    0.60    1.00
  YS02001898YS02001901 CONDUIT    345.62     0  02:10      0.53    0.22    1.00
  YS02001901YS02001904 CONDUIT    344.94     0  02:10      0.47    0.53    1.00
  YS02001904YS02001907 CONDUIT    341.36     0  02:11      0.43    0.12    1.00
  YS02001887YS02001890 CONDUIT    341.99     0  02:11      0.45    0.59    1.00
  YS02001652YS02001649 CONDUIT    315.54     0  02:04      0.61    0.16    1.00
  YS02001655YS02001652 CONDUIT    315.50     0  02:04      1.11    0.15    1.00
  YS02001658YS02001655 CONDUIT    438.78     0  01:58      1.42    0.19    1.00
  YS02001661YS02001658 CONDUIT    604.92     0  02:04      1.73    0.24    1.00
  YS02001664YS02001661 CONDUIT    639.90     0  02:23      1.64    0.20    0.71
  YSB1154YSB6556       CONDUIT     24.02     0  01:41      0.15    0.04    0.57
  YSB1174YSB1171       CONDUIT     20.01     0  01:36      0.07    0.03    0.68
  YSB1171HS02004479    CONDUIT     43.16     0  01:41      0.54    0.03    0.54
  HS02004881HS02006253 CONDUIT     74.61     0  01:43      2.05    0.01    0.26
  YS02001793JiankangQianchi CONDUIT    944.08     0  01:51     12.53    0.07    1.00
  YS02001757CaochengTiaoxuchi CONDUIT   1576.06     0  02:19      2.49    0.69    1.00
  WSF200WS02003060     CONDUIT    647.43     0  01:54      1.99    0.14    0.35
  1                    CONDUIT    906.12     0  02:14      3.24    0.32    0.39
  2                    CONDUIT    142.80     0  02:40      5.35    0.34    0.40
  3                    CONDUIT    521.58     0  02:10      9.86    0.83    0.70
  4                    CONDUIT      0.00     0  00:00      0.00    0.00    0.00
  CC-Pump-1            PUMP       200.00     0  02:00              1.00
  CC-Pump-2            PUMP       200.00     0  03:00              1.00
  JK-Pump-1            PUMP       300.00     0  02:00              1.00
  JK-Pump-2            PUMP       300.00     0  00:00              1.00
  XR-Pump-1            PUMP        95.00     0  01:00              1.00
  XR-Pump-2            PUMP        95.00     0  03:00              1.00
  XR-Pump-3            PUMP        95.00     0  01:50              1.00
  XR-Pump-4            PUMP        95.00     0  00:20              1.00
  
  
  ***************************
  Flow Classification Summary
  ***************************
  
  -------------------------------------------------------------------------------------
                      Adjusted    ---------- Fraction of Time in Flow Class ---------- 
                       /Actual         Up    Down  Sub   Sup   Up    Down  Norm  Inlet 
  Conduit               Length    Dry  Dry   Dry   Crit  Crit  Crit  Crit  Ltd   Ctrl  
  -------------------------------------------------------------------------------------
  WS02003066WSF200        1.00   0.06  0.00  0.00  0.00  0.94  0.00  0.00  0.62  0.00
  WS02006287WS02006284    1.00   0.04  0.01  0.00  0.59  0.37  0.00  0.00  0.72  0.00
  WS02006284WS02006280    1.00   0.04  0.00  0.00  0.00  0.00  0.00  0.96  0.00  0.00
  WS02006280WS02006229    1.00   0.04  0.00  0.00  0.00  0.00  0.00  0.96  0.00  0.00
  WS02006229WS02006228    1.00   0.00  0.00  0.00  0.99  0.00  0.00  0.01  0.00  0.00
  WS02006256WS02006235    1.00   0.00  0.00  0.00  1.00  0.00  0.00  0.00  0.00  0.00
  WS02006253WS02006251    1.00   0.03  0.01  0.00  0.96  0.00  0.00  0.00  0.00  0.00
  WS02006252WS02006251    1.00   0.06  0.00  0.00  0.00  0.00  0.94  0.00  0.00  0.00
  WS02006251WS02006249    1.00   0.00  0.00  0.00  1.00  0.00  0.00  0.00  0.19  0.00
  WS02006249WS02006248    1.00   0.00  0.02  0.00  0.91  0.00  0.07  0.00  0.00  0.00
  WS02006248WS02006247    1.00   0.02  0.00  0.00  0.98  0.00  0.00  0.00  0.07  0.00
  WS02006247WS02006245    1.00   0.02  0.00  0.00  0.98  0.00  0.00  0.00  0.00  0.00
  WS02006245WS02006243    1.00   0.01  0.00  0.00  0.96  0.00  0.00  0.02  0.01  0.00
  WS02006243WS02006242    1.00   0.01  0.00  0.00  0.99  0.00  0.00  0.00  0.15  0.00
  WS02006242WS02006240    1.00   0.00  0.00  0.00  0.99  0.00  0.00  0.00  0.00  0.00
  WS02006240WS02006239    1.00   0.00  0.00  0.00  0.97  0.00  0.00  0.02  0.01  0.00
  WS02006239WS02006238    1.00   0.00  0.00  0.00  1.00  0.00  0.00  0.00  0.00  0.00
  WS02006238WS02006235    1.00   0.00  0.00  0.00  1.00  0.00  0.00  0.00  0.00  0.00
  WS02006235WS02006234    1.00   0.00  0.00  0.00  0.97  0.00  0.03  0.00  0.00  0.00
  WS02006234WS02006232    1.00   0.00  0.00  0.00  1.00  0.00  0.00  0.00  0.03  0.00
  WS02006232WS02006231    1.00   0.00  0.00  0.00  0.99  0.00  0.00  0.00  0.00  0.00
  WS02006231WS02006230    1.00   0.00  0.00  0.00  0.68  0.00  0.32  0.00  0.00  0.00
  WS02006230WS02006229    1.00   0.00  0.00  0.00  0.99  0.00  0.00  0.01  0.01  0.00
  WS02006228WS02006109    1.00   0.00  0.00  0.00  1.00  0.00  0.00  0.00  0.00  0.00
  WS02006116WS02004401    1.00   0.02  0.00  0.00  0.98  0.00  0.00  0.00  0.00  0.00
  WS02006115WS02006116    1.00   0.02  0.00  0.00  0.97  0.00  0.00  0.01  0.00  0.00
  WS02006113WS02006111    1.00   0.02  0.00  0.00  0.00  0.98  0.00  0.00  0.11  0.00
  WS02006112WS02006115    1.00   0.02  0.00  0.00  0.98  0.00  0.00  0.00  0.00  0.00
  WS02006111WS02006112    1.00   0.02  0.00  0.00  0.98  0.00  0.00  0.00  0.93  0.00
  WS02006110WS02006113    1.00   0.01  0.01  0.00  0.98  0.00  0.00  0.00  0.00  0.00
  WS02006109WS02006110    1.00   0.00  0.01  0.00  0.98  0.00  0.01  0.00  0.00  0.00
  WS02004411WS02004412    1.00   0.04  0.00  0.00  0.96  0.00  0.00  0.00  0.01  0.00
  WS02004401WS02004402    1.00   0.02  0.00  0.00  0.98  0.00  0.00  0.00  0.00  0.00
  WS02004413WS02003067    1.00   0.04  0.01  0.00  0.00  0.00  0.95  0.00  0.00  0.00
  WS02004412WS02004413    1.00   0.04  0.00  0.00  0.96  0.00  0.00  0.00  0.03  0.00
  WS02004410WS02004411    1.00   0.03  0.00  0.00  0.97  0.00  0.00  0.00  0.03  0.00
  WS02004409WS02004410    1.00   0.03  0.00  0.00  0.97  0.00  0.00  0.00  0.00  0.00
  WS02004407WS02004409    1.00   0.03  0.00  0.00  0.96  0.00  0.00  0.00  0.89  0.00
  WS02004406WS02004407    1.00   0.00  0.03  0.00  0.97  0.00  0.00  0.00  0.00  0.00
  WS02004405WS02004406    1.00   0.00  0.00  0.00  1.00  0.00  0.00  0.00  0.01  0.00
  WS02004404WS02004405    1.00   0.00  0.00  0.00  1.00  0.00  0.00  0.00  0.00  0.00
  WS02004403WS02004404    1.00   0.00  0.02  0.00  0.98  0.00  0.00  0.00  0.01  0.00
  WS02004402WS02004403    1.00   0.02  0.00  0.00  0.98  0.00  0.00  0.00  0.00  0.00
  WS02004139WS02001211    1.00   0.00  0.01  0.00  0.99  0.00  0.00  0.00  0.00  0.00
  WS02004138WS02004139    1.00   0.02  0.00  0.00  0.98  0.00  0.00  0.00  0.98  0.00
  WS02003067WS02003066    1.00   0.05  0.01  0.00  0.94  0.00  0.00  0.00  0.00  0.00
  WS02001213WS02003059    1.00   0.00  0.01  0.00  0.99  0.00  0.00  0.00  0.00  0.00
  WS02001212WS02001213    1.00   0.02  0.00  0.00  0.86  0.00  0.12  0.00  0.00  0.00
  WS02001211WS02001212    1.00   0.00  0.02  0.00  0.98  0.00  0.00  0.00  0.00  0.00
  WS02003072WS02003073    1.00   0.00  0.00  0.00  0.00  0.00  0.00  1.00  0.00  0.00
  WS02003069WS02003072    1.00   0.00  0.00  0.00  0.99  0.01  0.00  0.00  0.23  0.00
  WS02003060WS02003069    1.00   0.00  0.00  0.00  0.99  0.01  0.00  0.00  0.17  0.00
  WS02003059WS02003060    1.00   0.00  0.00  0.00  1.00  0.00  0.00  0.00  0.04  0.00
  HS02004901HS02004770    1.00   0.04  0.00  0.00  0.96  0.00  0.00  0.00  0.00  0.00
  HS02004876HS02004881    1.00   0.02  0.00  0.00  0.90  0.08  0.00  0.00  0.00  0.00
  HS02004870HS02004876    1.00   0.01  0.00  0.00  0.99  0.00  0.00  0.00  0.95  0.00
  HS02004842HS02004848    1.00   0.00  0.04  0.00  0.96  0.00  0.00  0.00  0.58  0.00
  HS02004837HS02004842    1.00   0.00  0.00  0.00  0.99  0.01  0.00  0.00  0.11  0.00
  HS02004830HS02004837    1.00   0.00  0.00  0.00  1.00  0.00  0.00  0.00  0.99  0.00
  HS02004824HS02004830    1.00   0.00  0.00  0.00  1.00  0.00  0.00  0.00  0.00  0.00
  HS02004817HS02004824    1.00   0.00  0.00  0.00  1.00  0.00  0.00  0.00  1.00  0.00
  HS02004770HS02004777    1.00   0.00  0.04  0.00  0.96  0.00  0.00  0.00  0.02  0.00
  HS02004799HS02004480    1.00   0.00  0.02  0.00  0.96  0.00  0.02  0.00  0.00  0.00
  HS02004792HS02004799    1.00   0.00  0.00  0.00  0.99  0.01  0.00  0.00  0.98  0.00
  HS02004788HS02004792    1.00   0.00  0.00  0.00  0.99  0.01  0.00  0.00  0.98  0.00
  HS02004785HS02004788    1.00   0.00  0.00  0.00  1.00  0.00  0.00  0.00  0.00  0.00
  HS02004777HS02004785    1.00   0.00  0.00  0.00  1.00  0.00  0.00  0.00  0.12  0.00
  HS02004480HS02004478    1.00   0.04  0.00  0.00  0.63  0.00  0.00  0.33  0.00  0.00
  HS02004479HS02004480    1.00   0.02  0.00  0.00  0.98  0.00  0.00  0.00  0.11  0.00
  HS02004862HS02004870    1.00   0.00  0.00  0.00  1.00  0.00  0.00  0.00  0.03  0.00
  HS02004848HS02004852    1.00   0.04  0.00  0.00  0.96  0.00  0.00  0.00  0.78  0.00
  HS02004856HS02004862    1.00   0.00  0.04  0.00  0.96  0.00  0.00  0.00  0.83  0.00
  HS02004852HS02004856    1.00   0.04  0.00  0.00  0.96  0.00  0.00  0.00  0.86  0.00
  HS02004802HS02004478    1.00   0.04  0.00  0.00  0.96  0.00  0.00  0.00  0.02  0.00
  HS02004478WS02006287    1.00   0.04  0.00  0.00  0.74  0.22  0.00  0.00  0.69  0.00
  HS02004817HS02004807    1.00   0.00  0.04  0.00  0.96  0.00  0.00  0.00  0.01  0.00
  HS02004807HS02004802    1.00   0.04  0.00  0.00  0.96  0.00  0.00  0.00  0.00  0.00
  YS02001759YS02001757    1.00   0.00  0.00  0.00  1.00  0.00  0.00  0.00  0.16  0.00
  YS02001762YS02001759    1.00   0.00  0.00  0.00  1.00  0.00  0.00  0.00  0.03  0.00
  YS02001765YS02001762    1.00   0.00  0.00  0.00  1.00  0.00  0.00  0.00  0.13  0.00
  YS02001770YS02001767    1.00   0.00  0.00  0.00  1.00  0.00  0.00  0.00  0.00  0.00
  YS02001774YS02001770    1.00   0.00  0.04  0.00  0.96  0.00  0.00  0.00  0.03  0.00
  YS02001779YS02001774    1.00   0.00  0.00  0.00  1.00  0.00  0.00  0.00  0.17  0.00
  YS02001649YS02001757    1.00   0.00  0.00  0.00  1.00  0.00  0.00  0.00  0.16  0.00
  YS02001767YS02001765    1.00   0.00  0.00  0.00  1.00  0.00  0.00  0.00  0.00  0.00
  YS02006561YS02001783    1.00   0.05  0.00  0.00  0.43  0.53  0.00  0.00  0.58  0.00
  YS02001783YS02001784    1.00   0.00  0.05  0.00  0.95  0.00  0.00  0.00  0.00  0.00
  YS02001784YS02001785    1.00   0.00  0.00  0.00  1.00  0.00  0.00  0.00  0.16  0.00
  YS02001788YS02001790    1.00   0.00  0.00  0.00  0.51  0.49  0.00  0.00  0.51  0.00
  YS02001790YS02001791    1.00   0.00  0.00  0.00  0.51  0.49  0.00  0.00  0.39  0.00
  YS02001791YS02001793    1.00   0.00  0.00  0.00  0.53  0.47  0.00  0.00  0.03  0.00
  YS02001910YS02001907    1.00   0.00  0.00  0.00  0.98  0.00  0.00  0.02  0.12  0.00
  YS02001786YS02001788    1.00   0.00  0.00  0.00  0.49  0.51  0.00  0.00  0.00  0.00
  YS02001915YS02001910    1.00   0.00  0.00  0.00  0.99  0.01  0.00  0.00  0.14  0.00
  YS02001918YS02001915    1.00   0.00  0.01  0.00  0.98  0.01  0.00  0.00  0.57  0.00
  YS02001923YS02001920    1.00   0.00  0.00  0.00  1.00  0.00  0.00  0.00  0.82  0.00
  YS02001926YS02001923    1.00   0.00  0.03  0.00  0.17  0.00  0.80  0.00  0.00  0.00
  YS02001929YS02001926    1.00   0.00  0.04  0.00  0.96  0.00  0.00  0.00  0.78  0.00
  YS02001920YS02001918    1.00   0.00  0.01  0.00  0.99  0.00  0.00  0.00  0.00  0.00
  YS02001629YS02163301    1.00   0.04  0.00  0.00  0.96  0.00  0.00  0.00  0.00  0.00
  YS02001619YS02001622    1.00   0.04  0.00  0.00  0.96  0.00  0.00  0.00  0.00  0.00
  YS02001622YS02001625    1.00   0.04  0.00  0.00  0.96  0.00  0.00  0.00  0.04  0.00
  YS02001625YS02001629    1.00   0.04  0.01  0.00  0.94  0.00  0.01  0.00  0.00  0.00
  YS02163301YS02001633    1.00   0.00  0.04  0.00  0.96  0.00  0.00  0.00  0.00  0.00
  YS02163601YS02164001    1.00   0.00  0.03  0.00  0.97  0.00  0.00  0.00  0.00  0.00
  YS02164001YS02001641    1.00   0.01  0.02  0.00  0.97  0.00  0.00  0.00  0.06  0.00
  YS02001641YS02001644    1.00   0.00  0.01  0.00  0.99  0.00  0.00  0.00  0.00  0.00
  YS02001647YS02001649    1.00   0.00  0.04  0.00  0.95  0.00  0.00  0.00  0.01  0.00
  YS02006553YS02006556    1.00   0.01  0.00  0.00  0.99  0.00  0.00  0.00  0.03  0.00
  YS02006556YS02006558    1.00   0.00  0.00  0.00  1.00  0.00  0.00  0.00  0.00  0.00
  YSB6556YSB1171          1.00   0.03  0.01  0.00  0.96  0.00  0.00  0.00  0.00  0.00
  YS02001907YS02006553    1.00   0.00  0.02  0.00  0.98  0.00  0.00  0.00  0.00  0.00
  YS02006558YS02006561    1.00   0.05  0.00  0.00  0.22  0.73  0.00  0.00  0.50  0.00
  YS02001633YS02163601    1.00   0.00  0.01  0.00  0.99  0.00  0.00  0.00  0.15  0.00
  YS02001644YS02001647    1.00   0.00  0.05  0.00  0.95  0.00  0.00  0.00  0.00  0.00
  YS02001745YS02001748    1.00   0.00  0.00  0.00  0.92  0.00  0.00  0.07  0.03  0.00
  YS02001748YS02001751    1.00   0.00  0.00  0.00  0.98  0.02  0.00  0.00  0.14  0.00
  YS02001751YS02001754    1.00   0.00  0.00  0.00  0.95  0.00  0.00  0.05  0.01  0.00
  YS02001754YS02001757    1.00   0.00  0.00  0.00  0.99  0.01  0.00  0.00  0.17  0.00
  YS02001882YS02001884    1.00   0.04  0.00  0.00  0.96  0.00  0.00  0.00  0.00  0.00
  YS02001884YS02001887    1.00   0.03  0.01  0.00  0.96  0.00  0.00  0.00  0.00  0.00
  YS02001890YS02001895    1.00   0.00  0.04  0.00  0.96  0.00  0.00  0.00  0.00  0.00
  YS02001895YS02001898    1.00   0.04  0.00  0.00  0.95  0.00  0.00  0.00  0.00  0.00
  YS02001898YS02001901    1.00   0.04  0.00  0.00  0.96  0.00  0.00  0.00  0.01  0.00
  YS02001901YS02001904    1.00   0.04  0.00  0.00  0.96  0.00  0.00  0.00  0.00  0.00
  YS02001904YS02001907    1.00   0.00  0.04  0.00  0.96  0.00  0.00  0.00  0.00  0.00
  YS02001887YS02001890    1.00   0.00  0.00  0.00  0.98  0.00  0.02  0.00  0.00  0.00
  YS02001652YS02001649    1.00   0.00  0.00  0.00  1.00  0.00  0.00  0.00  0.15  0.00
  YS02001655YS02001652    1.00   0.00  0.00  0.00  0.95  0.00  0.00  0.05  0.01  0.00
  YS02001658YS02001655    1.00   0.00  0.04  0.00  0.94  0.02  0.00  0.00  0.02  0.00
  YS02001661YS02001658    1.00   0.04  0.00  0.00  0.92  0.04  0.00  0.00  0.03  0.00
  YS02001664YS02001661    1.00   0.04  0.00  0.00  0.89  0.07  0.00  0.00  0.15  0.00
  YSB1154YSB6556          1.00   0.04  0.00  0.00  0.96  0.00  0.00  0.00  0.01  0.00
  YSB1174YSB1171          1.00   0.03  0.01  0.00  0.97  0.00  0.00  0.00  0.00  0.00
  YSB1171HS02004479       1.00   0.03  0.00  0.00  0.97  0.00  0.00  0.00  0.10  0.00
  HS02004881HS02006253    1.00   0.03  0.00  0.00  0.82  0.01  0.00  0.14  0.70  0.00
  YS02001793JiankangQianchi    1.00   0.00  0.00  0.00  0.85  0.15  0.00  0.00  0.27  0.00
  YS02001757CaochengTiaoxuchi    1.00   0.00  0.06  0.00  0.91  0.04  0.00  0.00  0.00  0.00
  WSF200WS02003060        1.00   0.00  0.06  0.00  0.41  0.52  0.00  0.00  0.04  0.00
  1                       1.00   0.00  0.00  0.00  0.00  1.00  0.00  0.00  0.31  0.00
  2                       1.00   0.56  0.00  0.00  0.00  0.44  0.00  0.00  0.09  0.00
  3                       1.00   0.21  0.00  0.00  0.00  0.79  0.00  0.00  0.30  0.00
  4                       1.00   1.00  0.00  0.00  0.00  0.00  0.00  0.00  0.00  0.00
  
  
  *************************
  Conduit Surcharge Summary
  *************************
  
  ----------------------------------------------------------------------------
                                                           Hours        Hours 
                         --------- Hours Full --------   Above Full   Capacity
  Conduit                Both Ends  Upstream  Dnstream   Normal Flow   Limited
  ----------------------------------------------------------------------------
  WS02006229WS02006228        2.30      2.53      2.30      5.24         2.30
  WS02006256WS02006235        6.43      6.44      7.70      2.70         0.01
  WS02006252WS02006251        1.04      1.04      2.31      1.98         0.01
  WS02006251WS02006249        0.01      0.01      0.01      1.06         0.01
  WS02006249WS02006248        0.01      0.01      0.01      5.23         0.01
  WS02006247WS02006245        0.01      0.01      0.01      5.51         0.01
  WS02006245WS02006243        0.01      0.01      0.01      0.03         0.01
  WS02006243WS02006242        0.01      0.01      1.52      0.01         0.01
  WS02006242WS02006240        0.81      0.81      1.94      2.39         0.01
  WS02006240WS02006239        0.99      0.99      1.18      0.39         0.01
  WS02006239WS02006238        1.62      1.63      1.77      0.53         0.11
  WS02006238WS02006235        1.63      1.63      2.21      0.01         0.01
  WS02006235WS02006234        1.09      1.09      1.53      6.45         0.01
  WS02006234WS02006232        1.23      1.23      2.44      0.01         0.01
  WS02006232WS02006231        0.62      0.62      2.44      0.01         0.01
  WS02006231WS02006230        0.46      0.46      0.66      6.45         0.01
  WS02006230WS02006229        3.67      4.90      3.67      6.53         3.67
  WS02006228WS02006109        2.40      3.13      2.40      5.90         2.40
  WS02006112WS02006115        0.01      0.01      1.26      0.01         0.01
  WS02006111WS02006112        0.01      0.01      5.34      0.01         0.01
  WS02006110WS02006113        0.01      0.01      2.84      0.01         0.01
  WS02006109WS02006110        1.07      1.07      3.14      1.08         0.01
  WS02004406WS02004407        0.01      0.01      0.29      0.01         0.01
  WS02004405WS02004406        0.29      0.40      0.29      1.18         0.29
  WS02004404WS02004405        0.40      0.51      0.40      6.34         0.40
  WS02004403WS02004404        0.01      0.01      0.51      0.01         0.01
  WS02003072WS02003073        0.01      0.01      0.01      5.08         0.01
  HS02004480HS02004478        0.01      0.01      0.01      0.41         0.01
  YS02001759YS02001757        6.15      6.15      6.19      0.01         0.01
  YS02001762YS02001759        6.14      6.14      6.15      0.01         0.01
  YS02001765YS02001762        6.13      6.13      6.14      0.01         0.01
  YS02001770YS02001767        6.12      6.13      6.12      0.43         0.91
  YS02001774YS02001770        6.11      6.11      6.14      0.01         0.01
  YS02001779YS02001774        5.95      5.95      6.14      0.01         0.01
  YS02001649YS02001757        6.15      6.15      6.19      0.01         0.01
  YS02001767YS02001765        6.12      6.12      6.13      0.01         0.01
  YS02006561YS02001783        0.62      0.62      1.53      0.01         0.01
  YS02001783YS02001784        1.53      1.53      1.60      1.28         1.21
  YS02001784YS02001785        1.54      1.60      1.54      2.21         1.54
  YS02001788YS02001790        1.53      1.53      2.72      0.01         0.01
  YS02001790YS02001791        2.72      2.72      2.84      0.01         0.04
  YS02001791YS02001793        2.84      2.84      3.28      0.01         0.01
  YS02001910YS02001907        1.21      1.21      1.70      0.01         0.01
  YS02001786YS02001788        1.53      1.54      1.53      1.85         1.52
  YS02001915YS02001910        0.91      0.91      1.21      0.01         0.01
  YS02001918YS02001915        0.01      0.01      0.91      0.01         0.01
  YS02001923YS02001920        0.01      0.01      0.26      0.01         0.01
  YS02001920YS02001918        0.01      0.01      0.26      0.01         0.01
  YS02001629YS02163301        6.10      6.10      6.11      0.01         0.01
  YS02001619YS02001622        5.78      5.78      5.82      0.01         0.01
  YS02001622YS02001625        5.82      5.82      6.09      0.01         0.01
  YS02001625YS02001629        5.80      5.80      6.09      0.01         0.01
  YS02163301YS02001633        6.11      6.11      6.12      0.01         0.01
  YS02163601YS02164001        6.12      6.12      6.15      0.01         0.01
  YS02164001YS02001641        6.12      6.12      6.13      0.01         0.03
  YS02001641YS02001644        6.13      6.13      6.13      1.41         1.56
  YS02001647YS02001649        6.07      6.07      6.15      0.01         0.01
  YS02006553YS02006556        1.44      1.44      1.74      0.01         0.01
  YS02006556YS02006558        1.59      1.59      1.81      0.01         0.01
  YS02001907YS02006553        2.23      2.23      2.42      0.01         0.01
  YS02006558YS02006561        1.07      1.41      1.07      2.09         1.07
  YS02001633YS02163601        6.12      6.12      6.15      0.01         0.01
  YS02001644YS02001647        6.07      6.07      6.13      0.01         0.01
  YS02001745YS02001748        0.01      0.01      5.58      0.01         0.01
  YS02001748YS02001751        5.66      5.66      5.77      0.01         0.01
  YS02001751YS02001754        5.77      5.77      5.97      0.01         0.01
  YS02001754YS02001757        6.04      6.04      6.19      0.01         0.01
  YS02001882YS02001884        0.94      0.94      0.99      0.01         0.01
  YS02001884YS02001887        1.07      1.07      1.11      0.01         0.01
  YS02001890YS02001895        0.88      0.88      1.24      0.01         0.01
  YS02001895YS02001898        0.85      0.85      0.88      0.01         0.01
  YS02001898YS02001901        0.89      0.89      1.06      0.01         0.01
  YS02001901YS02001904        1.03      1.03      1.06      0.01         0.01
  YS02001904YS02001907        1.03      1.03      1.76      0.01         0.01
  YS02001887YS02001890        1.15      1.15      1.19      0.01         0.01
  YS02001652YS02001649        6.07      6.07      6.15      0.01         0.01
  YS02001655YS02001652        5.81      5.81      6.03      0.01         0.01
  YS02001658YS02001655        5.63      5.63      5.81      0.01         0.01
  YS02001661YS02001658        0.21      0.21      5.63      0.01         0.01
  YS02001664YS02001661        0.01      0.01      1.06      0.01         0.01
  YS02001793JiankangQianchi        3.18      3.18      5.04      0.01         0.01
  YS02001757CaochengTiaoxuchi        5.45      5.45      6.19      0.01         0.01
  
  
  ***************
  Pumping Summary
  ***************
  
  ---------------------------------------------------------------------------------------------------------
                                                  Min       Avg       Max     Total     Power    % Time Off
                        Percent   Number of      Flow      Flow      Flow    Volume     Usage    Pump Curve
  Pump                 Utilized   Start-Ups       LPS       LPS       LPS  10^6 ltr     Kw-hr    Low   High
  ---------------------------------------------------------------------------------------------------------
  CC-Pump-1               63.36           5      0.00    132.09    200.00     2.394      3.38    0.0    8.3
  CC-Pump-2               70.21           4      0.00    141.56    200.00     2.820      3.26    0.0    5.1
  JK-Pump-1               70.20           7      0.00    170.32    300.00     2.809     21.72    0.0    0.0
  JK-Pump-2               80.85           7      0.00    165.29    300.00     2.963     25.98    0.0    0.0
  XR-Pump-1               78.71           7      0.00     65.52     95.00     1.482      7.01    0.0    0.0
  XR-Pump-2               59.55           9      0.00     58.68     95.00     0.997      4.71    0.0    0.0
  XR-Pump-3               78.71          10      0.00     54.60     95.00     1.225      5.96    0.0    0.0
  XR-Pump-4               68.07           8      0.00     69.61     95.00     1.339      6.85    0.0    0.0
  

  Analysis begun on:  Wed Jan  5 13:14:35 2022
  Analysis ended on:  Wed Jan  5 13:14:40 2022
  Total elapsed time: 00:00:05