
  EPA STORM WATER MANAGEMENT MODEL - VERSION 5.1 (Build 5.3.0.dev0)
  --------------------------------------------------------------

  WARNING 04: minimum elevation drop used for Conduit WS02004404WS02004405
  WARNING 03: negative offset ignored for Link YS02001904YS02001907
  
  *********************************************************
  NOTE: The summary statistics displayed in this report are
  based on results found at every computational time step,  
  not just on results from each reporting time step.
  *********************************************************
  
  ****************
  Analysis Options
  ****************
  Flow Units ............... LPS
  Process Models:
    Rainfall/Runoff ........ YES
    RDII ................... NO
    Snowmelt ............... NO
    Groundwater ............ NO
    Flow Routing ........... YES
    Ponding Allowed ........ NO
    Water Quality .......... NO
  Infiltration Method ...... HORTON
  Flow Routing Method ...... DYNWAVE
  Surcharge Method ......... EXTRAN
  Starting Date ............ 08/28/2015 08:00:00
  Ending Date .............. 08/28/2015 15:50:00
  Antecedent Dry Days ...... 8.0
  Report Time Step ......... 00:01:00
  Wet Time Step ............ 00:01:00
  Dry Time Step ............ 00:01:00
  Routing Time Step ........ 5.00 sec
  Variable Time Step ....... YES
  Maximum Trials ........... 8
  Number of Threads ........ 4
  Head Tolerance ........... 0.001500 m
  
  
  **************************        Volume         Depth
  Runoff Quantity Continuity     hectare-m            mm
  **************************     ---------       -------
  Total Precipitation ......         3.147         6.891
  Evaporation Loss .........         0.000         0.000
  Infiltration Loss ........         0.796         1.742
  Surface Runoff ...........         1.432         3.135
  Final Storage ............         0.920         2.015
  Continuity Error (%) .....        -0.018
  
  
  **************************        Volume        Volume
  Flow Routing Continuity        hectare-m      10^6 ltr
  **************************     ---------     ---------
  Dry Weather Inflow .......         0.616         6.165
  Wet Weather Inflow .......         1.431        14.312
  Groundwater Inflow .......         0.000         0.000
  RDII Inflow ..............         0.000         0.000
  External Inflow ..........         0.102         1.024
  External Outflow .........         1.285        12.853
  Flooding Loss ............         0.314         3.143
  Evaporation Loss .........         0.000         0.000
  Exfiltration Loss ........         0.000         0.000
  Initial Stored Volume ....         0.076         0.761
  Final Stored Volume ......         0.626         6.256
  Continuity Error (%) .....         0.040
  
  
  *************************
  Highest Continuity Errors
  *************************
  Node YS02001774 (28.24%)
  Node HS02004842 (25.41%)
  Node YS02001884 (19.98%)
  Node YSB1171 (5.83%)
  Node YS02001625 (4.56%)
  
  
  ***************************
  Time-Step Critical Elements
  ***************************
  Link 3 (80.51%)
  Link WS02006280WS02006229 (7.52%)
  Link WS02006238WS02006235 (2.82%)
  Link YS02001791YS02001793 (2.79%)
  
  
  ********************************
  Highest Flow Instability Indexes
  ********************************
  Link WS02006113WS02006111 (34)
  Link YS02006558YS02006561 (23)
  Link WS02006111WS02006112 (17)
  Link YS02001779YS02001774 (15)
  Link YS02001774YS02001770 (15)
  
  
  *************************
  Routing Time Step Summary
  *************************
  Minimum Time Step           :     0.50 sec
  Average Time Step           :     1.34 sec
  Maximum Time Step           :     5.00 sec
  Percent in Steady State     :    -0.00
  Average Iterations per Step :     3.63
  Percent Not Converging      :    18.80
  
  
  ***************************
  Subcatchment Runoff Summary
  ***************************
  
  ------------------------------------------------------------------------------------------------------------------------------
                            Total      Total      Total      Total     Imperv       Perv      Total       Total     Peak  Runoff
                           Precip      Runon       Evap      Infil     Runoff     Runoff     Runoff      Runoff   Runoff   Coeff
  Subcatchment                 mm         mm         mm         mm         mm         mm         mm    10^6 ltr      LPS
  ------------------------------------------------------------------------------------------------------------------------------
  sub0                       6.89       0.00       0.00       0.48       5.14       0.00       5.14        0.00     1.72   0.746
  sub1                       6.89       0.00       0.00       0.76       4.88       0.00       4.88        0.03     9.27   0.708
  sub2                       6.89       0.00       0.00       2.55       3.43       0.00       3.43        0.03     8.25   0.498
  sub3                       6.89       0.00       0.00       2.55       3.40       0.00       3.40        0.08    17.12   0.493
  sub4                       6.89       0.00       0.00       0.76       4.73       0.00       4.73        0.10    19.36   0.687
  sub5                       6.89       0.00       0.00       0.48       5.10       0.00       5.10        0.06    16.48   0.740
  sub7                       6.89       0.00       0.00       0.62       5.02       0.00       5.02        0.02     5.74   0.728
  sub8                       6.89       0.00       0.00       0.62       5.01       0.00       5.01        0.03    10.18   0.727
  sub9                       6.89       0.00       0.00       0.62       5.00       0.00       5.00        0.02     7.56   0.726
  sub10                      6.89       0.00       0.00       0.55       5.05       0.00       5.05        0.06    16.42   0.733
  sub11                      6.89       0.00       0.00       0.55       5.06       0.00       5.06        0.06    19.13   0.735
  sub12                      6.89       0.00       0.00       0.90       4.81       0.00       4.81        0.04    15.99   0.697
  sub14                      6.89       0.00       0.00       0.62       5.00       0.00       5.00        0.05    14.78   0.726
  sub15                      6.89       0.00       0.00       2.07       3.84       0.00       3.84        0.07    20.07   0.558
  sub16                      6.89       0.00       0.00       2.27       3.70       0.00       3.70        0.04    14.12   0.537
  sub17                      6.89       0.00       0.00       2.20       3.75       0.00       3.75        0.03    11.42   0.544
  sub22                      6.89       0.00       0.00       2.96       3.14       0.00       3.14        0.20    65.39   0.456
  sub23                      6.89       0.00       0.00       2.55       3.47       0.00       3.47        0.17    55.59   0.504
  sub60                      6.89       0.00       0.00       0.83       3.52       0.00       3.52        1.07   103.27   0.511
  sub61                      6.89       0.00       0.00       1.17       3.72       0.00       3.72        1.15   128.06   0.540
  sub62                      6.89       0.00       0.00       0.55       4.00       0.00       4.00        1.23   131.31   0.581
  sub63                      6.89       0.00       0.00       2.00       3.30       0.00       3.30        1.00   118.97   0.479
  sub64                      6.89       0.00       0.00       1.03       3.37       0.00       3.37        1.02    98.15   0.488
  sub65                      6.89       0.00       0.00       0.90       3.41       0.00       3.41        1.05    99.66   0.495
  sub66                      6.89       0.00       0.00       2.00       2.93       0.00       2.93        0.90    89.65   0.425
  sub67                      6.89       0.00       0.00       0.55       4.36       0.00       4.36        1.35   166.79   0.633
  sub68                      6.89       0.00       0.00       0.96       3.95       0.00       3.95        1.21   141.17   0.573
  sub69                      6.89       0.00       0.00       1.03       4.22       0.00       4.22        0.99   138.50   0.612
  sub70                      6.89       4.31       0.00       3.81       5.29       0.00       5.29        1.21   116.43   0.473
  sub71                      6.89       0.00       0.00       0.55       3.84       0.00       3.84        0.91    92.03   0.558
  sub72                      6.89       0.00       0.00       0.48       2.78       0.00       2.78        0.57    44.19   0.404
  sub73                      6.89       5.15       0.00       4.09       5.48       0.00       5.48        1.29   100.82   0.455
  sub74                      6.89       0.00       0.00       5.17       1.27       0.00       1.27        0.51    76.91   0.184
  
  
  ******************
  Node Depth Summary
  ******************
  
  ---------------------------------------------------------------------------------
                                 Average  Maximum  Maximum  Time of Max    Reported
                                   Depth    Depth      HGL   Occurrence   Max Depth
  Node                 Type       Meters   Meters   Meters  days hr:min      Meters
  ---------------------------------------------------------------------------------
  WS02001211           JUNCTION     0.68     0.71     5.55     0  02:42        0.71
  WS02001212           JUNCTION     0.39     0.43     5.49     0  02:41        0.43
  WS02001213           JUNCTION     0.61     0.67     5.43     0  02:40        0.67
  WS02003069           JUNCTION     0.39     0.49     5.08     0  02:39        0.49
  WS02003072           JUNCTION     0.46     0.56     4.93     0  02:40        0.56
  WS02003073           JUNCTION     0.27     0.34     4.40     0  02:40        0.34
  WS02003060           JUNCTION     0.35     0.44     5.37     0  02:38        0.44
  WS02003066           JUNCTION     0.18     0.26     5.82     0  02:37        0.26
  WS02003059           JUNCTION     0.66     0.73     5.41     0  02:40        0.73
  WS02003067           JUNCTION     0.46     0.64     5.96     0  02:36        0.64
  WS02004401           JUNCTION     0.52     0.75     6.75     0  02:33        0.75
  WS02004402           JUNCTION     0.56     0.78     6.74     0  02:33        0.78
  WS02004403           JUNCTION     0.58     0.80     6.73     0  02:33        0.80
  WS02004404           JUNCTION     0.66     0.88     6.73     0  02:33        0.88
  WS02004406           JUNCTION     0.67     0.88     6.71     0  02:34        0.88
  WS02004409           JUNCTION     0.34     0.57     6.34     0  02:35        0.57
  WS02004410           JUNCTION     0.36     0.59     6.31     0  02:36        0.59
  WS02004411           JUNCTION     0.38     0.60     6.28     0  02:35        0.60
  WS02004412           JUNCTION     0.41     0.62     6.26     0  02:36        0.62
  WS02004413           JUNCTION     0.56     0.78     6.25     0  02:36        0.78
  WS02004405           JUNCTION     0.65     0.87     6.72     0  02:33        0.87
  WS02006109           JUNCTION     0.58     0.83     7.44     0  02:26        0.83
  WS02006110           JUNCTION     0.59     0.82     7.40     0  02:26        0.81
  WS02006111           JUNCTION     0.15     0.25     6.96     0  02:26        0.25
  WS02006112           JUNCTION     0.67     0.93     6.81     0  02:32        0.93
  WS02006113           JUNCTION     0.23     0.39     7.28     0  02:26        0.39
  WS02006115           JUNCTION     0.41     0.64     6.78     0  02:32        0.64
  WS02006116           JUNCTION     0.49     0.72     6.76     0  02:32        0.72
  WS02006230           JUNCTION     0.49     0.78     7.52     0  02:27        0.78
  WS02006231           JUNCTION     0.28     0.44     7.56     0  02:30        0.44
  WS02006232           JUNCTION     0.39     0.55     7.59     0  02:30        0.55
  WS02006234           JUNCTION     0.30     0.45     7.61     0  02:30        0.45
  WS02006235           JUNCTION     0.32     0.47     7.63     0  02:30        0.47
  WS02006238           JUNCTION     0.34     0.49     7.63     0  02:29        0.48
  WS02006240           JUNCTION     0.20     0.34     7.63     0  02:31        0.34
  WS02006242           JUNCTION     0.23     0.37     7.64     0  02:31        0.37
  WS02006243           JUNCTION     0.10     0.22     7.64     0  02:32        0.22
  WS02006245           JUNCTION     0.08     0.18     7.67     0  02:28        0.18
  WS02006247           JUNCTION     0.09     0.21     7.71     0  02:19        0.21
  WS02006248           JUNCTION     0.06     0.16     7.75     0  02:18        0.16
  WS02006249           JUNCTION     0.09     0.21     7.81     0  02:18        0.21
  WS02006239           JUNCTION     0.28     0.42     7.63     0  02:30        0.42
  WS02006251           JUNCTION     0.07     0.19     7.86     0  02:17        0.19
  WS02006252           JUNCTION     0.00     0.00     8.24     0  00:00        0.00
  WS02006253           JUNCTION     0.11     0.25     7.89     0  02:16        0.25
  WS02006256           JUNCTION     0.95     1.70     8.63     0  02:40        1.28
  WS02004138           JUNCTION     0.16     0.17     7.42     0  07:04        0.17
  WS02004407           JUNCTION     0.15     0.26     6.57     0  02:34        0.26
  WS02006228           JUNCTION     0.56     0.83     7.49     0  02:25        0.83
  WS02006229           JUNCTION     0.52     0.81     7.51     0  02:25        0.81
  WS02006280           JUNCTION     0.07     0.16     8.43     0  02:17        0.16
  WS02006284           JUNCTION     0.37     0.50     8.90     0  02:16        0.50
  WS02006287           JUNCTION     0.10     0.24     9.19     0  02:16        0.24
  WSF200               JUNCTION     0.15     0.26     5.49     0  02:36        0.26
  HS02004901           JUNCTION     0.12     0.25    10.07     0  02:14        0.25
  HS02004881           JUNCTION     0.01     0.03     9.06     0  02:16        0.03
  HS02004876           JUNCTION     0.05     0.11     9.14     0  02:12        0.11
  HS02004870           JUNCTION     0.01     0.05     9.33     0  02:17        0.05
  HS02004862           JUNCTION     0.02     0.05     9.44     0  02:18        0.05
  HS02004856           JUNCTION     0.08     0.11     9.54     0  02:17        0.11
  HS02004852           JUNCTION     0.01     0.03     9.54     0  02:18        0.03
  HS02004848           JUNCTION     0.01     0.03     9.63     0  02:17        0.03
  HS02004842           JUNCTION     0.33     0.36     9.63     0  02:17        0.36
  HS02004837           JUNCTION     0.03     0.05     9.63     0  02:16        0.05
  HS02004830           JUNCTION     0.04     0.07     9.54     0  02:17        0.07
  HS02004824           JUNCTION     0.02     0.04     9.45     0  02:20        0.04
  HS02004817           JUNCTION     0.44     0.54     9.39     0  02:17        0.54
  HS02004807           JUNCTION     0.12     0.22     9.39     0  02:17        0.22
  HS02004802           JUNCTION     0.16     0.26     9.38     0  02:17        0.26
  HS02004799           JUNCTION     0.12     0.28     9.50     0  02:14        0.28
  HS02004792           JUNCTION     0.03     0.11     9.64     0  02:14        0.11
  HS02004788           JUNCTION     0.02     0.08     9.98     0  02:15        0.08
  HS02004785           JUNCTION     0.05     0.15    10.05     0  02:14        0.15
  HS02004777           JUNCTION     0.15     0.27    10.07     0  02:14        0.27
  HS02004770           JUNCTION     0.12     0.24    10.07     0  02:14        0.24
  HS02004480           JUNCTION     0.08     0.22     9.46     0  02:15        0.22
  HS02004479           JUNCTION     0.12     0.26     9.46     0  02:15        0.26
  HS02004478           JUNCTION     0.06     0.14     9.37     0  02:16        0.14
  YS02001745           JUNCTION     0.54     0.86     8.38     0  04:17        0.85
  YS02001748           JUNCTION     0.91     1.30     8.38     0  04:17        1.30
  YS02001751           JUNCTION     1.09     1.98     8.86     0  03:07        1.49
  YS02001754           JUNCTION     1.34     1.93     8.54     0  03:03        1.76
  YS02001762           JUNCTION     1.54     1.99     8.39     0  04:17        1.98
  YS02001765           JUNCTION     1.49     1.95     8.40     0  04:17        1.93
  YS02001767           JUNCTION     1.46     1.90     8.39     0  04:09        1.88
  YS02001770           JUNCTION     1.45     1.95     8.44     0  03:07        1.88
  YS02001774           JUNCTION     1.52     2.02     8.44     0  03:07        1.95
  YS02001779           JUNCTION     1.27     1.68     8.37     0  03:02        1.68
  YS02001882           JUNCTION     0.35     0.53     7.25     0  02:51        0.53
  YS02001884           JUNCTION     0.44     0.63     7.25     0  02:52        0.63
  YS02001759           JUNCTION     1.57     2.03     8.39     0  04:09        2.01
  YS02001887           JUNCTION     0.52     0.71     7.25     0  02:52        0.71
  YS02001890           JUNCTION     0.55     0.74     7.25     0  02:52        0.74
  YS02001898           JUNCTION     0.32     0.50     7.23     0  02:55        0.50
  YS02001901           JUNCTION     0.44     0.62     7.23     0  02:54        0.62
  YS02001904           JUNCTION     0.42     0.60     7.23     0  02:54        0.60
  YS02001907           JUNCTION     0.75     0.94     7.23     0  02:54        0.94
  YS02001910           JUNCTION     0.53     0.72     7.23     0  02:55        0.72
  YS02001915           JUNCTION     0.33     0.51     7.23     0  02:55        0.51
  YS02001918           JUNCTION     0.10     0.16     7.23     0  02:55        0.16
  YS02001619           JUNCTION     1.06     1.51     8.44     0  03:37        1.46
  YS02001629           JUNCTION     1.40     1.85     8.40     0  03:38        1.82
  YS02001641           JUNCTION     1.51     1.93     8.37     0  04:03        1.92
  YS02001644           JUNCTION     1.51     1.92     8.35     0  03:58        1.92
  YS02001652           JUNCTION     1.36     2.09     8.69     0  03:13        1.79
  YS02001655           JUNCTION     1.12     2.20     9.05     0  03:13        1.55
  YS02001920           JUNCTION     0.20     0.24     7.25     0  02:56        0.24
  YS02001923           JUNCTION     0.08     0.10     7.36     0  03:01        0.10
  YS02001926           JUNCTION     0.16     0.20     7.64     0  03:01        0.20
  YS02001929           JUNCTION     0.08     0.10     7.79     0  03:01        0.10
  YS02001658           JUNCTION     0.86     1.56     8.70     0  03:31        1.27
  YS02001661           JUNCTION     0.64     1.16     8.56     0  04:09        1.03
  YS02001664           JUNCTION     0.27     0.56     8.48     0  04:06        0.52
  YS02001622           JUNCTION     1.08     1.52     8.42     0  03:37        1.49
  YS02001633           JUNCTION     1.49     1.94     8.40     0  04:03        1.91
  YS02001649           JUNCTION     1.55     2.02     8.41     0  04:09        1.99
  YS02001757           JUNCTION     1.67     2.14     8.40     0  04:09        2.11
  YS02001895           JUNCTION     0.31     0.49     7.24     0  02:51        0.49
  YS02001625           JUNCTION     1.36     1.78     8.38     0  03:36        1.78
  YS02163301           JUNCTION     1.43     1.88     8.40     0  04:03        1.85
  YS02163601           JUNCTION     1.55     1.99     8.39     0  04:03        1.96
  YS02164001           JUNCTION     1.49     1.92     8.38     0  04:03        1.90
  YS02001647           JUNCTION     1.34     1.78     8.39     0  04:09        1.75
  YSB1154              JUNCTION     0.26     0.41     9.47     0  02:15        0.41
  YSB6556              JUNCTION     0.15     0.30     9.47     0  02:15        0.30
  YSB1174              JUNCTION     0.21     0.36     9.47     0  02:15        0.36
  YSB1171              JUNCTION     0.41     0.56     9.47     0  02:15        0.56
  YS02006553           JUNCTION     0.75     0.94     7.23     0  02:53        0.94
  YS02006561           JUNCTION     0.17     0.27     6.93     0  02:52        0.27
  YS02006556           JUNCTION     0.72     0.91     7.22     0  02:53        0.91
  YS02006558           JUNCTION     0.77     0.95     7.22     0  02:53        0.95
  YS02001783           JUNCTION     0.30     0.48     6.62     0  02:53        0.48
  YS02001784           JUNCTION     0.33     0.50     6.57     0  02:52        0.50
  YS02001786           JUNCTION     0.28     0.42     6.45     0  02:53        0.42
  YS02001788           JUNCTION     0.21     0.32     6.30     0  02:53        0.32
  YS02001790           JUNCTION     0.26     0.39     6.04     0  02:53        0.39
  YS02001791           JUNCTION     0.16     0.36     5.83     0  02:26        0.24
  YS02001793           JUNCTION     0.35     2.66     7.49     0  02:26        0.93
  WS02004139           JUNCTION     0.62     0.65     5.56     0  02:42        0.65
  WSC                  OUTFALL      0.27     0.34     1.01     0  02:41        0.34
  3                    OUTFALL      0.09     0.22     6.22     0  02:40        0.19
  4                    OUTFALL      0.00     0.00     7.00     0  00:00        0.00
  5                    OUTFALL      0.00     0.00     5.00     0  00:00        0.00
  JK-storage           STORAGE      4.18     4.88     5.68     0  02:35        4.87
  CC-storage           STORAGE      0.92     1.38     8.38     0  04:16        1.38
  XR-storage           STORAGE      7.35     7.72     5.72     0  02:38        7.72
  
  
  *******************
  Node Inflow Summary
  *******************
  
  -------------------------------------------------------------------------------------------------
                                  Maximum  Maximum                  Lateral       Total        Flow
                                  Lateral    Total  Time of Max      Inflow      Inflow     Balance
                                   Inflow   Inflow   Occurrence      Volume      Volume       Error
  Node                 Type           LPS      LPS  days hr:min    10^6 ltr    10^6 ltr     Percent
  -------------------------------------------------------------------------------------------------
  WS02001211           JUNCTION      7.35   294.57     0  07:05       0.207        7.12       0.449
  WS02001212           JUNCTION      0.00   293.51     0  02:53           0        7.09       0.221
  WS02001213           JUNCTION      0.00   293.92     0  02:53           0        7.07       0.254
  WS02003069           JUNCTION      0.32   708.36     0  02:39     0.00902        10.5       0.157
  WS02003072           JUNCTION      0.00   708.34     0  02:39           0        10.5       0.213
  WS02003073           JUNCTION      1.82   710.19     0  02:40      0.0514        10.6       0.225
  WS02003060           JUNCTION     16.53   708.02     0  02:38       0.466        10.6       0.151
  WS02003066           JUNCTION      0.00   402.52     0  02:36           0        3.06       0.062
  WS02003059           JUNCTION      0.00   294.72     0  02:51           0        7.06       0.453
  WS02003067           JUNCTION      0.00   402.50     0  02:36           0        3.07       0.161
  WS02004401           JUNCTION      0.00   406.59     0  02:32           0        3.18       0.362
  WS02004402           JUNCTION      0.00   406.36     0  02:33           0        3.17       0.365
  WS02004403           JUNCTION      0.00   406.15     0  02:33           0        3.16       0.350
  WS02004404           JUNCTION      0.16   406.24     0  02:33     0.00457        3.15       0.302
  WS02004406           JUNCTION      0.00   406.14     0  02:33           0        3.13       0.706
  WS02004409           JUNCTION      0.00   405.77     0  02:34           0        3.11       0.140
  WS02004410           JUNCTION      0.00   404.81     0  02:34           0         3.1       0.204
  WS02004411           JUNCTION      0.00   403.93     0  02:35           0         3.1       0.242
  WS02004412           JUNCTION      0.00   403.31     0  02:35           0        3.09       0.307
  WS02004413           JUNCTION      0.00   402.69     0  02:35           0        3.08       0.528
  WS02004405           JUNCTION      0.04   406.20     0  02:33     0.00107        3.15       0.423
  WS02006109           JUNCTION      1.23   405.42     0  02:26      0.0347        3.22       0.433
  WS02006110           JUNCTION      0.00   405.47     0  02:26           0         3.2       0.387
  WS02006111           JUNCTION      0.00   413.97     0  02:26           0        3.19       0.046
  WS02006112           JUNCTION     11.42   413.57     0  02:26      0.0322        3.22       0.506
  WS02006113           JUNCTION      0.00   405.60     0  02:26           0        3.19       0.109
  WS02006115           JUNCTION      0.00   410.31     0  02:28           0         3.2       0.274
  WS02006116           JUNCTION      0.00   407.21     0  02:29           0        3.19       0.278
  WS02006230           JUNCTION     10.28   194.89     0  02:36        0.29        2.16       0.391
  WS02006231           JUNCTION      0.00   184.41     0  02:36           0        1.87       0.193
  WS02006232           JUNCTION      0.00   184.18     0  02:36           0        1.88       0.537
  WS02006234           JUNCTION      0.00   184.67     0  02:35           0        1.87       0.029
  WS02006235           JUNCTION      0.00   205.41     0  02:18           0        2.07       0.406
  WS02006238           JUNCTION      0.00   133.33     0  02:18           0       0.482       0.664
  WS02006240           JUNCTION      0.00    59.15     0  02:19           0       0.324       1.598
  WS02006242           JUNCTION      0.00    51.84     0  02:20           0       0.248       1.920
  WS02006243           JUNCTION      0.00    51.88     0  02:21           0       0.195       0.037
  WS02006245           JUNCTION      0.00    51.90     0  02:19           0       0.185       0.671
  WS02006247           JUNCTION      0.00    51.95     0  02:18           0       0.185       0.064
  WS02006248           JUNCTION      0.00    51.97     0  02:18           0       0.185      -0.026
  WS02006249           JUNCTION      0.00    52.02     0  02:17           0       0.185       0.256
  WS02006239           JUNCTION      0.00    77.93     0  02:18           0       0.405       1.039
  WS02006251           JUNCTION      0.08    52.09     0  02:16     0.00217       0.185       0.042
  WS02006252           JUNCTION      0.00     0.00     0  00:00           0           0       0.000 ltr
  WS02006253           JUNCTION      1.72    52.05     0  02:16     0.00416       0.183       0.077
  WS02006256           JUNCTION      0.00   600.00     0  02:29           0        4.07       0.271
  WS02004138           JUNCTION      0.00   285.00     0  02:03           0        6.94       0.047
  WS02004407           JUNCTION      0.00   405.89     0  02:34           0        3.11       0.062
  WS02006228           JUNCTION      0.00   404.02     0  02:26           0        3.19       0.287
  WS02006229           JUNCTION      0.00   403.81     0  02:25           0        3.21       0.371
  WS02006280           JUNCTION      0.00   261.76     0  02:17           0        1.06       0.006
  WS02006284           JUNCTION      0.10   261.75     0  02:16      0.0027        1.06       0.103
  WS02006287           JUNCTION      0.00   261.63     0  02:16           0        1.06       0.068
  WSF200               JUNCTION      0.00   402.51     0  02:37           0        3.06       0.045
  HS02004901           JUNCTION     14.12    14.12     0  02:09      0.0387      0.0388       4.739
  HS02004881           JUNCTION      5.74    50.70     0  02:16      0.0169       0.179       0.035
  HS02004876           JUNCTION      9.27    45.24     0  02:16      0.0324       0.163       0.328
  HS02004870           JUNCTION     10.18    36.13     0  02:16       0.032        0.13       0.082
  HS02004862           JUNCTION      8.45    26.57     0  02:17      0.0376      0.0985       0.172
  HS02004856           JUNCTION      7.56    18.17     0  02:16      0.0241      0.0623       2.366
  HS02004852           JUNCTION      0.00    11.06     0  02:17           0      0.0383       0.136
  HS02004848           JUNCTION     17.12    17.12     0  02:20      0.0765      0.0765       0.057
  HS02004842           JUNCTION      0.00     6.65     0  02:29           0      0.0512      34.061
  HS02004837           JUNCTION     22.77    28.31     0  02:16       0.235       0.273       0.289
  HS02004830           JUNCTION      0.15    28.44     0  02:17     0.00423       0.263       0.470
  HS02004824           JUNCTION     19.41    47.61     0  02:20         0.1       0.362       0.149
  HS02004817           JUNCTION      0.60    48.20     0  02:20      0.0169       0.379       4.606
  HS02004807           JUNCTION     19.13    65.71     0  02:18      0.0588       0.421       1.015
  HS02004802           JUNCTION      0.00    66.14     0  02:19           0       0.416       0.983
  HS02004799           JUNCTION     14.78   167.13     0  02:14      0.0476       0.565       0.407
  HS02004792           JUNCTION     65.67   152.56     0  02:13       0.206       0.518       0.079
  HS02004788           JUNCTION     21.74    88.74     0  02:14       0.113       0.313       0.123
  HS02004785           JUNCTION      0.15    67.27     0  02:14     0.00423       0.201       0.241
  HS02004777           JUNCTION      0.03    67.55     0  02:12    0.000846       0.202       2.635
  HS02004770           JUNCTION     55.59    68.62     0  02:11       0.165       0.203       1.552
  HS02004480           JUNCTION      0.00   197.22     0  02:15           0       0.661       0.114
  HS02004479           JUNCTION      0.00    30.69     0  02:16           0       0.109       0.674
  HS02004478           JUNCTION      0.00   261.61     0  02:16           0        1.06       0.057
  YS02001745           JUNCTION    103.27   157.40     0  03:28        1.07        1.07       1.066
  YS02001748           JUNCTION      0.04   399.10     0  03:05     0.00127         1.1       2.151
  YS02001751           JUNCTION      0.01   417.53     0  03:07     0.00031        1.07       2.169
  YS02001754           JUNCTION      0.26   185.05     0  03:03     0.00733        1.02       2.380
  YS02001762           JUNCTION      0.00   162.94     0  03:01           0        1.14       1.857
  YS02001765           JUNCTION      0.00   162.81     0  03:03           0        1.15       2.146
  YS02001767           JUNCTION      0.54   162.37     0  03:03      0.0151        1.17       3.167
  YS02001770           JUNCTION    131.47   159.52     0  03:01        1.23        1.25       2.593
  YS02001774           JUNCTION      0.00    69.83     0  03:07           0      0.0892      39.348
  YS02001779           JUNCTION      0.01    70.25     0  03:07    0.000141      0.0478      45.791
  YS02001882           JUNCTION      0.00     4.88     0  02:07           0     0.00649      38.245
  YS02001884           JUNCTION      0.00    13.65     0  02:10           0      0.0257      24.974
  YS02001759           JUNCTION    128.10   288.40     0  03:01        1.15        2.26       1.023
  YS02001887           JUNCTION    167.24   167.48     0  02:42        1.36        1.37       0.545
  YS02001890           JUNCTION      0.00   167.18     0  02:47           0        1.34       0.609
  YS02001898           JUNCTION      0.00   166.74     0  02:47           0        1.33       0.182
  YS02001901           JUNCTION      0.00   166.86     0  02:46           0        1.33       0.437
  YS02001904           JUNCTION      0.00   166.59     0  02:46           0        1.33       0.406
  YS02001907           JUNCTION      0.00   304.30     0  02:57           0        2.86       0.791
  YS02001910           JUNCTION      0.00   141.91     0  03:03           0        1.55       0.682
  YS02001915           JUNCTION     92.05   139.55     0  02:58       0.908        1.55       0.315
  YS02001918           JUNCTION      0.00    47.53     0  03:04           0       0.645       0.200
  YS02001619           JUNCTION     89.65    89.65     0  02:59       0.897       0.897       1.354
  YS02001629           JUNCTION      0.00   199.33     0  03:12           0       0.821       3.591
  YS02001641           JUNCTION      0.00   205.47     0  03:03           0        1.77       1.200
  YS02001644           JUNCTION     98.19   473.02     0  04:22        1.02        4.36       0.601
  YS02001652           JUNCTION      0.00   177.51     0  03:02           0       0.934       2.467
  YS02001655           JUNCTION      0.15   347.76     0  03:00     0.00434       0.974       2.397
  YS02001920           JUNCTION      2.87    47.04     0  03:01      0.0809       0.647       0.347
  YS02001923           JUNCTION      0.04    44.17     0  03:01     0.00106       0.566       0.062
  YS02001926           JUNCTION      0.05    44.22     0  03:01     0.00147       0.568       0.431
  YS02001929           JUNCTION     44.19    44.19     0  03:01       0.567       0.567       0.061
  YS02001658           JUNCTION      0.00   389.10     0  03:29           0        1.05       2.139
  YS02001661           JUNCTION      0.00   381.33     0  04:01           0        1.18       1.570
  YS02001664           JUNCTION    118.97   334.81     0  04:01       0.998        1.12       0.500
  YS02001622           JUNCTION      0.00   143.08     0  03:15           0       0.888       3.672
  YS02001633           JUNCTION     99.86   207.70     0  03:03        1.05        1.83       1.787
  YS02001649           JUNCTION      0.00   460.19     0  03:01           0        3.66       1.018
  YS02001757           JUNCTION      0.00   762.63     0  02:56           0        5.31       1.769
  YS02001895           JUNCTION      0.00   166.80     0  02:47           0        1.33       0.298
  YS02001625           JUNCTION      0.00   199.47     0  03:12           0       0.859       4.781
  YS02163301           JUNCTION      0.00   110.78     0  03:03           0       0.802       3.061
  YS02163601           JUNCTION      0.11   207.08     0  03:03      0.0031        1.79       1.707
  YS02164001           JUNCTION      0.00   206.59     0  03:03           0        1.77       1.157
  YS02001647           JUNCTION      0.00   318.31     0  04:21           0        3.08       0.917
  YSB1154              JUNCTION     16.48    16.48     0  02:14      0.0577       0.059       2.509
  YSB6556              JUNCTION      0.00    16.51     0  02:15           0      0.0599       2.126
  YSB1174              JUNCTION     15.99    15.99     0  02:08       0.042      0.0429       3.083
  YSB1171              JUNCTION      0.00    30.61     0  02:14           0       0.108       6.196
  YS02006553           JUNCTION      0.00   304.15     0  03:02           0        2.85       0.512
  YS02006561           JUNCTION      0.00   471.49     0  02:52           0        4.04       0.012
  YS02006556           JUNCTION      0.00   304.37     0  03:02           0        2.86       0.371
  YS02006558           JUNCTION    142.05   445.36     0  02:51        1.24        4.07       0.120
  YS02001783           JUNCTION      0.00   443.90     0  02:53           0        4.04       0.042
  YS02001784           JUNCTION      1.06   444.46     0  02:52      0.0299        4.07       0.068
  YS02001786           JUNCTION      0.06   444.50     0  02:53     0.00159        4.06       0.066
  YS02001788           JUNCTION      0.07   444.59     0  02:53       0.002        4.06       0.039
  YS02001790           JUNCTION      0.15   444.79     0  02:53     0.00437        4.07       0.047
  YS02001791           JUNCTION      0.00   444.71     0  02:53           0        4.07       0.024
  YS02001793           JUNCTION      0.00   984.47     0  02:26           0        4.13       0.009
  WS02004139           JUNCTION      0.32   286.00     0  07:04     0.00905        6.94       0.436
  WSC                  OUTFALL       0.00   710.21     0  02:41           0        10.5       0.000
  3                    OUTFALL       0.00   566.35     0  02:40           0        2.32       0.000
  4                    OUTFALL       0.00     0.00     0  00:00           0           0       0.000 ltr
  5                    OUTFALL       0.00     0.00     0  00:00           0           0       0.000 ltr
  JK-storage           STORAGE       0.00  1184.95     0  02:25           0        4.28       0.007
  CC-storage           STORAGE       0.00   763.00     0  02:56           0        3.92       1.683
  XR-storage           STORAGE     366.60   366.60     0  02:56        7.43        8.03      -0.000
  
  
  **********************
  Node Surcharge Summary
  **********************
  
  Surcharging occurs when water rises above the top of the highest conduit.
  ---------------------------------------------------------------------
                                               Max. Height   Min. Depth
                                   Hours       Above Crown    Below Rim
  Node                 Type      Surcharged         Meters       Meters
  ---------------------------------------------------------------------
  WS02006109           JUNCTION        0.14          0.007        1.813
  WS02006256           JUNCTION        0.01          0.399        0.651
  WS02006228           JUNCTION        0.09          0.004        2.196
  YS02001748           JUNCTION        4.10          0.222        0.968
  YS02001751           JUNCTION        4.51          0.983        0.217
  YS02001754           JUNCTION        4.88          0.882        0.268
  YS02001762           JUNCTION        5.35          0.994        0.156
  YS02001765           JUNCTION        5.32          0.945        0.155
  YS02001767           JUNCTION        5.30          0.901        0.129
  YS02001770           JUNCTION        5.26          0.917        0.003
  YS02001774           JUNCTION        5.34          1.022        0.028
  YS02001779           JUNCTION        4.78          0.680        0.000
  YS02001759           JUNCTION        5.39          1.031        0.179
  YS02001619           JUNCTION        4.44          0.506        0.104
  YS02001629           JUNCTION        4.47          0.470        0.000
  YS02001641           JUNCTION        5.33          0.935        0.165
  YS02001644           JUNCTION        5.34          0.920        0.000
  YS02001652           JUNCTION        5.05          1.059        0.071
  YS02001655           JUNCTION        4.55          1.200        0.000
  YS02001658           JUNCTION        4.12          0.557        0.743
  YS02001661           JUNCTION        0.01          0.087        1.303
  YS02001622           JUNCTION        4.50          0.519        0.101
  YS02001633           JUNCTION        5.31          0.922        0.138
  YS02001649           JUNCTION        5.36          1.024        0.026
  YS02001757           JUNCTION        5.46          1.140        0.070
  YS02001625           JUNCTION        5.16          0.780        0.000
  YS02163301           JUNCTION        5.28          0.881        0.149
  YS02163601           JUNCTION        5.37          0.989        0.091
  YS02164001           JUNCTION        5.33          0.919        0.181
  YS02001647           JUNCTION        5.11          0.776        0.124
  YS02001793           JUNCTION        0.01          1.658        0.942
  
  
  *********************
  Node Flooding Summary
  *********************
  
  Flooding refers to all water that overflows a node, whether it ponds or not.
  --------------------------------------------------------------------------
                                                             Total   Maximum
                                 Maximum   Time of Max       Flood    Ponded
                        Hours       Rate    Occurrence      Volume     Depth
  Node                 Flooded       LPS   days hr:min    10^6 ltr    Meters
  --------------------------------------------------------------------------
  YS02001779              0.40     41.72      0  03:06       0.017     0.000
  YS02001629              0.01      3.42      0  03:38       0.000     0.000
  YS02001644              3.80    471.60      0  04:20       2.832     0.000
  YS02001655              0.01    151.67      0  03:13       0.000     0.000
  YS02001625              0.02      9.69      0  03:38       0.000     0.000
  XR-storage              1.95     81.60      0  02:56       0.293     0.000
  
  
  **********************
  Storage Volume Summary
  **********************
  
  --------------------------------------------------------------------------------------------------
                         Average     Avg  Evap Exfil       Maximum     Max    Time of Max    Maximum
                          Volume    Pcnt  Pcnt  Pcnt        Volume    Pcnt     Occurrence    Outflow
  Storage Unit           1000 m3    Full  Loss  Loss       1000 m3    Full    days hr:min        LPS
  --------------------------------------------------------------------------------------------------
  JK-storage               0.210      72     0     0         0.245      84       0  02:35     932.76
  CC-storage               2.555      16     0     0         3.842      24       0  04:16     124.34
  XR-storage               0.882      95     0     0         0.926     100       0  02:38     285.00
  
  
  ***********************
  Outfall Loading Summary
  ***********************
  
  -----------------------------------------------------------
                         Flow       Avg       Max       Total
                         Freq      Flow      Flow      Volume
  Outfall Node           Pcnt       LPS       LPS    10^6 ltr
  -----------------------------------------------------------
  WSC                  100.00    467.03    710.21      10.530
  3                     81.09    203.23    566.35       2.323
  4                      0.00      0.00      0.00       0.000
  5                      0.00      0.00      0.00       0.000
  -----------------------------------------------------------
  System                45.27    670.26   1276.31      12.853
  
  
  ********************
  Link Flow Summary
  ********************
  
  -----------------------------------------------------------------------------
                                 Maximum  Time of Max   Maximum    Max/    Max/
                                  |Flow|   Occurrence   |Veloc|    Full    Full
  Link                 Type          LPS  days hr:min     m/sec    Flow   Depth
  -----------------------------------------------------------------------------
  WS02003066WSF200     CONDUIT    402.51     0  02:37      2.59    0.07    0.20
  WS02006287WS02006284 CONDUIT    261.65     0  02:16      1.76    0.12    0.24
  WS02006284WS02006280 CONDUIT    261.76     0  02:17      2.00    0.11    0.22
  WS02006280WS02006229 CONDUIT    261.76     0  02:17      3.22    0.06    0.16
  WS02006229WS02006228 CONDUIT    404.02     0  02:26      0.80    1.34    1.00
  WS02006256WS02006235 CONDUIT    166.35     0  06:07      2.55    1.76    1.00
  WS02006253WS02006251 CONDUIT     52.01     0  02:16      0.53    0.16    0.30
  WS02006252WS02006251 CONDUIT      0.00     0  00:00      0.00    0.00    0.00
  WS02006251WS02006249 CONDUIT     52.02     0  02:17      0.59    0.15    0.28
  WS02006249WS02006248 CONDUIT     51.97     0  02:18      0.69    0.28    0.25
  WS02006248WS02006247 CONDUIT     51.95     0  02:18      0.67    0.11    0.26
  WS02006247WS02006245 CONDUIT     51.90     0  02:19      0.62    0.41    0.27
  WS02006245WS02006243 CONDUIT     51.88     0  02:21      0.75    0.15    0.28
  WS02006243WS02006242 CONDUIT     51.84     0  02:20      0.61    0.11    0.40
  WS02006242WS02006240 CONDUIT     53.38     0  02:21      0.51    0.21    0.50
  WS02006240WS02006239 CONDUIT     50.12     0  04:18      0.71    0.16    0.52
  WS02006239WS02006238 CONDUIT     78.84     0  04:18      0.66    0.25    0.63
  WS02006238WS02006235 CONDUIT    117.56     0  05:25      1.02    0.26    0.68
  WS02006235WS02006234 CONDUIT    184.67     0  02:35      0.90    1.95    0.63
  WS02006234WS02006232 CONDUIT    184.18     0  02:36      0.78    0.37    0.72
  WS02006232WS02006231 CONDUIT    184.41     0  02:36      0.69    0.39    0.70
  WS02006231WS02006230 CONDUIT    184.61     0  02:36      1.02    2.80    0.60
  WS02006230WS02006229 CONDUIT    195.68     0  02:37      0.52    4.35    1.00
  WS02006228WS02006109 CONDUIT    404.19     0  02:26      0.80    1.77    1.00
  WS02006116WS02004401 CONDUIT    406.59     0  02:32      0.66    0.56    0.74
  WS02006115WS02006116 CONDUIT    407.21     0  02:29      0.79    0.52    0.65
  WS02006113WS02006111 CONDUIT    413.97     0  02:26      2.23    0.50    0.40
  WS02006112WS02006115 CONDUIT    410.31     0  02:28      0.64    0.24    0.78
  WS02006111WS02006112 CONDUIT    405.98     0  02:26      1.18    0.19    0.65
  WS02006110WS02006113 CONDUIT    405.60     0  02:26      1.01    0.37    0.74
  WS02006109WS02006110 CONDUIT    405.47     0  02:26      0.83    0.78    0.94
  WS02004411WS02004412 CONDUIT    403.31     0  02:35      0.94    0.57    0.61
  WS02004401WS02004402 CONDUIT    406.36     0  02:33      0.63    0.49    0.76
  WS02004413WS02003067 CONDUIT    402.50     0  02:36      0.95    0.17    0.53
  WS02004412WS02004413 CONDUIT    402.69     0  02:35      0.84    0.27    0.70
  WS02004410WS02004411 CONDUIT    403.93     0  02:35      0.83    0.55    0.59
  WS02004409WS02004410 CONDUIT    404.81     0  02:34      0.88    0.52    0.58
  WS02004407WS02004409 CONDUIT    405.77     0  02:34      1.37    0.14    0.41
  WS02004406WS02004407 CONDUIT    405.89     0  02:34      0.88    0.18    0.57
  WS02004405WS02004406 CONDUIT    406.14     0  02:33      0.56    0.80    0.88
  WS02004404WS02004405 CONDUIT    406.16     0  02:33      0.56    3.98    0.87
  WS02004403WS02004404 CONDUIT    406.07     0  02:33      0.58    0.29    0.84
  WS02004402WS02004403 CONDUIT    406.15     0  02:33      0.61    0.58    0.79
  WS02004139WS02001211 CONDUIT    287.22     0  07:05      0.54    0.36    0.52
  WS02004138WS02004139 CONDUIT    285.68     0  07:04      2.39    0.06    0.38
  WS02003067WS02003066 CONDUIT    402.52     0  02:36      1.03    0.13    0.38
  WS02001213WS02003059 CONDUIT    294.72     0  02:51      0.59    0.49    0.69
  WS02001212WS02001213 CONDUIT    293.92     0  02:53      1.19    0.45    0.39
  WS02001211WS02001212 CONDUIT    293.51     0  02:53      0.67    0.22    0.57
  WS02003072WS02003073 CONDUIT    708.37     0  02:40      1.56    1.53    0.42
  WS02003069WS02003072 CONDUIT    708.34     0  02:39      1.48    0.34    0.44
  WS02003060WS02003069 CONDUIT    708.04     0  02:39      1.74    0.28    0.39
  WS02003059WS02003060 CONDUIT    295.86     0  02:51      0.82    0.19    0.58
  HS02004901HS02004770 CONDUIT     13.25     0  02:12      0.05    0.05    0.35
  HS02004876HS02004881 CONDUIT     45.38     0  02:16      0.68    0.48    0.10
  HS02004870HS02004876 CONDUIT     36.11     0  02:17      0.47    0.02    0.11
  HS02004842HS02004848 CONDUIT      6.65     0  02:29      0.03    0.00    0.28
  HS02004837HS02004842 CONDUIT      6.88     0  02:30      0.42    0.00    0.30
  HS02004830HS02004837 CONDUIT     28.29     0  02:17      0.48    0.03    0.08
  HS02004824HS02004830 CONDUIT     28.44     0  02:17      0.51    0.04    0.08
  HS02004817HS02004824 CONDUIT     47.60     0  02:20      0.17    0.02    0.42
  HS02004770HS02004777 CONDUIT     67.52     0  02:12      0.27    0.12    0.36
  HS02004799HS02004480 CONDUIT    166.89     0  02:14      0.67    0.21    0.36
  HS02004792HS02004799 CONDUIT    152.49     0  02:14      0.77    0.09    0.28
  HS02004788HS02004792 CONDUIT     88.68     0  02:15      0.91    0.06    0.14
  HS02004785HS02004788 CONDUIT     67.19     0  02:14      0.58    0.51    0.17
  HS02004777HS02004785 CONDUIT     67.12     0  02:14      0.32    0.08    0.30
  HS02004480HS02004478 CONDUIT    197.17     0  02:15      1.06    0.83    0.26
  HS02004479HS02004480 CONDUIT     30.93     0  02:16      0.15    0.03    0.34
  HS02004862HS02004870 CONDUIT     26.53     0  02:18      0.52    0.03    0.07
  HS02004848HS02004852 CONDUIT     11.06     0  02:17      0.35    0.01    0.05
  HS02004856HS02004862 CONDUIT     18.14     0  02:17      0.38    0.02    0.07
  HS02004852HS02004856 CONDUIT     11.03     0  02:18      0.16    0.01    0.10
  HS02004802HS02004478 CONDUIT     66.64     0  02:20      0.34    0.06    0.29
  HS02004478WS02006287 CONDUIT    261.63     0  02:16      1.45    0.07    0.20
  HS02004817HS02004807 CONDUIT     48.93     0  02:22      0.13    0.03    0.55
  HS02004807HS02004802 CONDUIT     66.14     0  02:19      0.29    0.13    0.33
  YS02001759YS02001757 CONDUIT    288.54     0  03:01      0.37    0.21    1.00
  YS02001762YS02001759 CONDUIT    163.26     0  03:01      0.21    0.19    1.00
  YS02001765YS02001762 CONDUIT    162.94     0  03:01      0.23    0.15    1.00
  YS02001770YS02001767 CONDUIT    161.83     0  03:03      0.30    0.64    1.00
  YS02001774YS02001770 CONDUIT     69.83     0  03:07      0.14    0.04    1.00
  YS02001779YS02001774 CONDUIT     70.25     0  03:07      0.09    0.04    1.00
  YS02001649YS02001757 CONDUIT    461.08     0  03:01      0.59    0.28    1.00
  YS02001767YS02001765 CONDUIT    162.81     0  03:03      0.26    0.20    1.00
  YS02006561YS02001783 CONDUIT    443.90     0  02:53      1.94    0.23    0.47
  YS02001783YS02001784 CONDUIT    443.40     0  02:52      1.38    0.61    0.61
  YS02001784YS02001785 CONDUIT    444.44     0  02:53      1.48    1.03    0.58
  YS02001788YS02001790 CONDUIT    444.64     0  02:53      2.04    0.33    0.45
  YS02001790YS02001791 CONDUIT    444.71     0  02:53      2.42    0.48    0.44
  YS02001791YS02001793 CONDUIT    636.06     0  02:26      4.05    0.27    0.69
  YS02001910YS02001907 CONDUIT    142.64     0  03:02      0.49    0.08    0.83
  YS02001786YS02001788 CONDUIT    444.52     0  02:53      1.93    0.86    0.47
  YS02001915YS02001910 CONDUIT    141.91     0  03:03      0.45    0.07    0.62
  YS02001918YS02001915 CONDUIT     49.85     0  03:03      0.44    0.03    0.34
  YS02001923YS02001920 CONDUIT     44.17     0  03:01      0.51    0.02    0.17
  YS02001926YS02001923 CONDUIT     44.13     0  03:01      0.56    0.06    0.16
  YS02001929YS02001926 CONDUIT     44.17     0  03:01      0.60    0.02    0.15
  YS02001920YS02001918 CONDUIT     47.53     0  03:04      0.52    0.05    0.20
  YS02001629YS02163301 CONDUIT    110.78     0  03:03      0.14    0.14    1.00
  YS02001619YS02001622 CONDUIT    143.08     0  03:15      0.70    0.21    1.00
  YS02001622YS02001625 CONDUIT    199.47     0  03:12      0.29    0.11    1.00
  YS02001625YS02001629 CONDUIT    199.33     0  03:12      0.28    0.09    1.00
  YS02163301YS02001633 CONDUIT    109.61     0  03:03      0.14    0.10    1.00
  YS02163601YS02164001 CONDUIT    206.59     0  03:03      0.26    0.18    1.00
  YS02164001YS02001641 CONDUIT    205.47     0  03:03      0.26    0.28    1.00
  YS02001641YS02001644 CONDUIT    204.66     0  03:03      0.26    0.66    1.00
  YS02001647YS02001649 CONDUIT    318.31     0  04:21      0.41    0.17    1.00
  YS02006553YS02006556 CONDUIT    304.37     0  03:02      0.41    0.26    0.91
  YS02006556YS02006558 CONDUIT    305.55     0  03:03      0.40    0.24    0.93
  YSB6556YSB1171       CONDUIT     16.80     0  02:18      0.07    0.02    0.61
  YS02001907YS02006553 CONDUIT    304.15     0  03:02      0.34    0.36    1.00
  YS02006558YS02006561 CONDUIT    471.49     0  02:52      2.67    1.04    0.60
  YS02001633YS02163601 CONDUIT    206.97     0  03:03      0.26    0.22    1.00
  YS02001644YS02001647 CONDUIT    319.64     0  04:21      0.41    0.19    1.00
  YS02001745YS02001748 CONDUIT    230.79     0  03:28      1.50    0.09    0.93
  YS02001748YS02001751 CONDUIT    417.51     0  03:07      1.15    0.21    1.00
  YS02001751YS02001754 CONDUIT    184.79     0  03:03      1.00    0.09    1.00
  YS02001754YS02001757 CONDUIT    183.05     0  03:07      0.33    0.07    1.00
  YS02001882YS02001884 CONDUIT      4.88     0  02:07      0.06    0.01    0.55
  YS02001884YS02001887 CONDUIT     13.65     0  02:10      0.06    0.02    0.65
  YS02001890YS02001895 CONDUIT    166.80     0  02:47      0.33    0.08    0.62
  YS02001895YS02001898 CONDUIT    166.74     0  02:47      0.49    0.29    0.48
  YS02001898YS02001901 CONDUIT    166.86     0  02:46      0.37    0.11    0.56
  YS02001901YS02001904 CONDUIT    166.59     0  02:46      0.33    0.26    0.61
  YS02001904YS02001907 CONDUIT    166.82     0  02:46      0.26    0.06    0.77
  YS02001887YS02001890 CONDUIT    167.18     0  02:47      0.29    0.29    0.70
  YS02001652YS02001649 CONDUIT    180.55     0  03:01      0.33    0.09    1.00
  YS02001655YS02001652 CONDUIT    177.51     0  03:02      1.07    0.09    1.00
  YS02001658YS02001655 CONDUIT    347.61     0  03:00      1.33    0.15    1.00
  YS02001661YS02001658 CONDUIT    389.10     0  03:29      1.56    0.15    1.00
  YS02001664YS02001661 CONDUIT    381.33     0  04:01      1.29    0.12    0.71
  YSB1154YSB6556       CONDUIT     16.51     0  02:15      0.19    0.03    0.50
  YSB1174YSB1171       CONDUIT     14.88     0  02:09      0.06    0.02    0.62
  YSB1171HS02004479    CONDUIT     30.69     0  02:16      0.54    0.02    0.48
  HS02004881HS02006253 CONDUIT     50.69     0  02:16      1.84    0.01    0.04
  YS02001793JiankangQianchi CONDUIT   1184.95     0  02:25      1.85    0.09    1.00
  YS02001757CaochengTiaoxuchi CONDUIT    763.00     0  02:56      1.42    0.34    1.00
  WSF200WS02003060     CONDUIT    402.66     0  02:37      1.49    0.09    0.29
  1                    CONDUIT    710.21     0  02:41      3.03    0.25    0.34
  2                    CONDUIT      0.00     0  00:00      0.00    0.00    0.00
  3                    CONDUIT    566.35     0  02:40     10.11    0.90    0.84
  4                    CONDUIT      0.00     0  00:00      0.00    0.00    0.00
  CC-Pump-1            PUMP         0.00     0  00:00              0.00
  CC-Pump-2            PUMP         0.00     0  00:00              0.00
  JK-Pump-1            PUMP       300.00     0  02:17              1.00
  JK-Pump-2            PUMP       300.00     0  02:29              1.00
  XR-Pump-1            PUMP        95.00     0  00:00              1.00
  XR-Pump-2            PUMP        95.00     0  00:25              1.00
  XR-Pump-3            PUMP        95.00     0  02:03              1.00
  XR-Pump-4            PUMP         0.00     0  00:00              0.00
  
  
  ***************************
  Flow Classification Summary
  ***************************
  
  -------------------------------------------------------------------------------------
                      Adjusted    ---------- Fraction of Time in Flow Class ---------- 
                       /Actual         Up    Down  Sub   Sup   Up    Down  Norm  Inlet 
  Conduit               Length    Dry  Dry   Dry   Crit  Crit  Crit  Crit  Ltd   Ctrl  
  -------------------------------------------------------------------------------------
  WS02003066WSF200        1.00   0.10  0.00  0.00  0.00  0.90  0.00  0.00  0.69  0.00
  WS02006287WS02006284    1.00   0.03  0.02  0.00  0.55  0.39  0.00  0.00  0.76  0.00
  WS02006284WS02006280    1.00   0.04  0.00  0.00  0.00  0.00  0.00  0.96  0.00  0.00
  WS02006280WS02006229    1.00   0.04  0.00  0.00  0.00  0.00  0.00  0.96  0.00  0.00
  WS02006229WS02006228    1.00   0.00  0.00  0.00  1.00  0.00  0.00  0.00  0.00  0.00
  WS02006256WS02006235    1.00   0.06  0.00  0.00  0.91  0.03  0.00  0.00  0.04  0.00
  WS02006253WS02006251    1.00   0.01  0.02  0.00  0.97  0.00  0.00  0.00  0.00  0.00
  WS02006252WS02006251    1.00   1.00  0.00  0.00  0.00  0.00  0.00  0.00  0.00  0.00
  WS02006251WS02006249    1.00   0.00  0.00  0.00  1.00  0.00  0.00  0.00  0.91  0.00
  WS02006249WS02006248    1.00   0.00  0.00  0.00  0.09  0.00  0.91  0.00  0.00  0.00
  WS02006248WS02006247    1.00   0.01  0.00  0.00  0.98  0.00  0.00  0.01  0.84  0.00
  WS02006247WS02006245    1.00   0.01  0.00  0.00  0.97  0.00  0.00  0.03  0.00  0.00
  WS02006245WS02006243    1.00   0.01  0.00  0.00  0.92  0.00  0.00  0.08  0.08  0.00
  WS02006243WS02006242    1.00   0.01  0.00  0.00  0.95  0.00  0.00  0.04  0.39  0.00
  WS02006242WS02006240    1.00   0.01  0.04  0.00  0.95  0.00  0.01  0.00  0.01  0.00
  WS02006240WS02006239    1.00   0.05  0.00  0.00  0.90  0.00  0.00  0.05  0.07  0.00
  WS02006239WS02006238    1.00   0.05  0.00  0.00  0.94  0.00  0.00  0.01  0.00  0.00
  WS02006238WS02006235    1.00   0.05  0.01  0.00  0.94  0.00  0.00  0.00  0.00  0.00
  WS02006235WS02006234    1.00   0.07  0.00  0.00  0.89  0.00  0.04  0.00  0.00  0.00
  WS02006234WS02006232    1.00   0.07  0.00  0.00  0.93  0.00  0.00  0.00  0.01  0.00
  WS02006232WS02006231    1.00   0.07  0.01  0.00  0.92  0.00  0.00  0.00  0.00  0.00
  WS02006231WS02006230    1.00   0.08  0.00  0.00  0.23  0.00  0.69  0.00  0.00  0.00
  WS02006230WS02006229    1.00   0.00  0.00  0.00  0.99  0.00  0.00  0.01  0.02  0.00
  WS02006228WS02006109    1.00   0.00  0.00  0.00  1.00  0.00  0.00  0.00  0.00  0.00
  WS02006116WS02004401    1.00   0.03  0.00  0.00  0.97  0.00  0.00  0.00  0.01  0.00
  WS02006115WS02006116    1.00   0.03  0.00  0.00  0.94  0.00  0.00  0.03  0.00  0.00
  WS02006113WS02006111    1.00   0.02  0.00  0.00  0.01  0.97  0.00  0.00  0.12  0.00
  WS02006112WS02006115    1.00   0.02  0.01  0.00  0.97  0.00  0.00  0.00  0.00  0.00
  WS02006111WS02006112    1.00   0.02  0.00  0.00  0.98  0.00  0.00  0.00  0.92  0.00
  WS02006110WS02006113    1.00   0.00  0.01  0.00  0.98  0.00  0.00  0.00  0.00  0.00
  WS02006109WS02006110    1.00   0.00  0.00  0.00  0.99  0.00  0.00  0.00  0.00  0.00
  WS02004411WS02004412    1.00   0.08  0.00  0.00  0.92  0.00  0.00  0.00  0.00  0.00
  WS02004401WS02004402    1.00   0.03  0.00  0.00  0.97  0.00  0.00  0.00  0.04  0.00
  WS02004413WS02003067    1.00   0.08  0.01  0.00  0.00  0.00  0.91  0.00  0.00  0.00
  WS02004412WS02004413    1.00   0.08  0.00  0.00  0.92  0.00  0.00  0.00  0.00  0.00
  WS02004410WS02004411    1.00   0.08  0.00  0.00  0.92  0.00  0.00  0.00  0.00  0.00
  WS02004409WS02004410    1.00   0.08  0.00  0.00  0.92  0.00  0.00  0.00  0.00  0.00
  WS02004407WS02004409    1.00   0.08  0.00  0.00  0.91  0.01  0.00  0.00  0.73  0.00
  WS02004406WS02004407    1.00   0.00  0.08  0.00  0.92  0.00  0.00  0.00  0.00  0.00
  WS02004405WS02004406    1.00   0.00  0.00  0.00  1.00  0.00  0.00  0.00  0.04  0.00
  WS02004404WS02004405    1.00   0.00  0.00  0.00  1.00  0.00  0.00  0.00  0.02  0.00
  WS02004403WS02004404    1.00   0.00  0.03  0.00  0.97  0.00  0.00  0.00  0.04  0.00
  WS02004402WS02004403    1.00   0.03  0.00  0.00  0.97  0.00  0.00  0.00  0.00  0.00
  WS02004139WS02001211    1.00   0.00  0.00  0.00  1.00  0.00  0.00  0.00  0.00  0.00
  WS02004138WS02004139    1.00   0.00  0.00  0.00  1.00  0.00  0.00  0.00  1.00  0.00
  WS02003067WS02003066    1.00   0.09  0.00  0.00  0.90  0.00  0.00  0.00  0.00  0.00
  WS02001213WS02003059    1.00   0.00  0.00  0.00  1.00  0.00  0.00  0.00  0.00  0.00
  WS02001212WS02001213    1.00   0.00  0.00  0.00  0.48  0.00  0.52  0.00  0.00  0.00
  WS02001211WS02001212    1.00   0.00  0.00  0.00  1.00  0.00  0.00  0.00  0.00  0.00
  WS02003072WS02003073    1.00   0.00  0.00  0.00  0.00  0.00  0.00  1.00  0.00  0.00
  WS02003069WS02003072    1.00   0.00  0.00  0.00  1.00  0.00  0.00  0.00  0.45  0.00
  WS02003060WS02003069    1.00   0.00  0.00  0.00  0.99  0.01  0.00  0.00  0.28  0.00
  WS02003059WS02003060    1.00   0.00  0.00  0.00  1.00  0.00  0.00  0.00  0.02  0.00
  HS02004901HS02004770    1.00   0.04  0.00  0.00  0.96  0.00  0.00  0.00  0.02  0.00
  HS02004876HS02004881    1.00   0.01  0.00  0.00  0.99  0.00  0.00  0.00  0.00  0.00
  HS02004870HS02004876    1.00   0.00  0.00  0.00  1.00  0.00  0.00  0.00  0.95  0.00
  HS02004842HS02004848    1.00   0.00  0.04  0.00  0.96  0.00  0.00  0.00  0.67  0.00
  HS02004837HS02004842    1.00   0.00  0.00  0.00  1.00  0.00  0.00  0.00  0.11  0.00
  HS02004830HS02004837    1.00   0.00  0.00  0.00  1.00  0.00  0.00  0.00  0.99  0.00
  HS02004824HS02004830    1.00   0.00  0.00  0.00  1.00  0.00  0.00  0.00  0.00  0.00
  HS02004817HS02004824    1.00   0.00  0.00  0.00  1.00  0.00  0.00  0.00  1.00  0.00
  HS02004770HS02004777    1.00   0.00  0.04  0.00  0.96  0.00  0.00  0.00  0.07  0.00
  HS02004799HS02004480    1.00   0.00  0.01  0.00  0.95  0.00  0.04  0.00  0.00  0.00
  HS02004792HS02004799    1.00   0.00  0.00  0.00  1.00  0.00  0.00  0.00  0.98  0.00
  HS02004788HS02004792    1.00   0.00  0.00  0.00  1.00  0.00  0.00  0.00  0.98  0.00
  HS02004785HS02004788    1.00   0.00  0.00  0.00  1.00  0.00  0.00  0.00  0.00  0.00
  HS02004777HS02004785    1.00   0.00  0.00  0.00  1.00  0.00  0.00  0.00  0.20  0.00
  HS02004480HS02004478    1.00   0.04  0.00  0.00  0.62  0.00  0.00  0.34  0.00  0.00
  HS02004479HS02004480    1.00   0.01  0.00  0.00  0.99  0.00  0.00  0.00  0.15  0.00
  HS02004862HS02004870    1.00   0.00  0.00  0.00  1.00  0.00  0.00  0.00  0.06  0.00
  HS02004848HS02004852    1.00   0.04  0.00  0.00  0.96  0.00  0.00  0.00  0.71  0.00
  HS02004856HS02004862    1.00   0.00  0.07  0.00  0.93  0.00  0.00  0.00  0.75  0.00
  HS02004852HS02004856    1.00   0.04  0.01  0.00  0.95  0.00  0.00  0.00  0.83  0.00
  HS02004802HS02004478    1.00   0.04  0.01  0.00  0.96  0.00  0.00  0.00  0.01  0.00
  HS02004478WS02006287    1.00   0.05  0.00  0.00  0.80  0.15  0.00  0.00  0.74  0.00
  HS02004817HS02004807    1.00   0.00  0.04  0.00  0.96  0.00  0.00  0.00  0.00  0.00
  HS02004807HS02004802    1.00   0.04  0.00  0.00  0.96  0.00  0.00  0.00  0.01  0.00
  YS02001759YS02001757    1.00   0.00  0.00  0.00  1.00  0.00  0.00  0.00  0.17  0.00
  YS02001762YS02001759    1.00   0.00  0.00  0.00  1.00  0.00  0.00  0.00  0.04  0.00
  YS02001765YS02001762    1.00   0.00  0.00  0.00  1.00  0.00  0.00  0.00  0.21  0.00
  YS02001770YS02001767    1.00   0.00  0.00  0.00  1.00  0.00  0.00  0.00  0.00  0.00
  YS02001774YS02001770    1.00   0.00  0.05  0.00  0.95  0.00  0.00  0.00  0.06  0.00
  YS02001779YS02001774    1.00   0.00  0.00  0.00  1.00  0.00  0.00  0.00  0.26  0.00
  YS02001649YS02001757    1.00   0.00  0.00  0.00  1.00  0.00  0.00  0.00  0.19  0.00
  YS02001767YS02001765    1.00   0.00  0.00  0.00  1.00  0.00  0.00  0.00  0.01  0.00
  YS02006561YS02001783    1.00   0.07  0.00  0.00  0.00  0.93  0.00  0.00  0.62  0.00
  YS02001783YS02001784    1.00   0.00  0.07  0.00  0.93  0.00  0.00  0.00  0.00  0.00
  YS02001784YS02001785    1.00   0.00  0.00  0.00  1.00  0.00  0.00  0.00  0.25  0.00
  YS02001788YS02001790    1.00   0.00  0.00  0.00  0.08  0.92  0.00  0.00  0.70  0.00
  YS02001790YS02001791    1.00   0.00  0.00  0.00  0.00  1.00  0.00  0.00  0.63  0.00
  YS02001791YS02001793    1.00   0.00  0.00  0.00  0.46  0.54  0.00  0.00  0.39  0.00
  YS02001910YS02001907    1.00   0.00  0.00  0.00  0.99  0.00  0.00  0.01  0.13  0.00
  YS02001786YS02001788    1.00   0.00  0.00  0.00  0.08  0.92  0.00  0.00  0.00  0.00
  YS02001915YS02001910    1.00   0.00  0.00  0.00  1.00  0.00  0.00  0.00  0.23  0.00
  YS02001918YS02001915    1.00   0.00  0.00  0.00  0.99  0.00  0.00  0.00  0.70  0.00
  YS02001923YS02001920    1.00   0.00  0.00  0.00  1.00  0.00  0.00  0.00  1.00  0.00
  YS02001926YS02001923    1.00   0.00  0.02  0.00  0.00  0.00  0.98  0.00  0.00  0.00
  YS02001929YS02001926    1.00   0.00  0.04  0.00  0.96  0.00  0.00  0.00  0.87  0.00
  YS02001920YS02001918    1.00   0.00  0.00  0.00  1.00  0.00  0.00  0.00  0.00  0.00
  YS02001629YS02163301    1.00   0.06  0.01  0.00  0.94  0.00  0.00  0.00  0.00  0.00
  YS02001619YS02001622    1.00   0.04  0.00  0.00  0.96  0.00  0.00  0.00  0.00  0.00
  YS02001622YS02001625    1.00   0.04  0.00  0.00  0.96  0.00  0.00  0.00  0.12  0.00
  YS02001625YS02001629    1.00   0.04  0.04  0.00  0.91  0.00  0.02  0.00  0.00  0.00
  YS02163301YS02001633    1.00   0.00  0.06  0.00  0.94  0.00  0.00  0.00  0.00  0.00
  YS02163601YS02164001    1.00   0.00  0.02  0.00  0.98  0.00  0.00  0.00  0.00  0.00
  YS02164001YS02001641    1.00   0.00  0.02  0.00  0.98  0.00  0.00  0.00  0.07  0.00
  YS02001641YS02001644    1.00   0.00  0.00  0.00  1.00  0.00  0.00  0.00  0.00  0.00
  YS02001647YS02001649    1.00   0.00  0.07  0.00  0.93  0.00  0.00  0.00  0.01  0.00
  YS02006553YS02006556    1.00   0.00  0.00  0.00  1.00  0.00  0.00  0.00  0.03  0.00
  YS02006556YS02006558    1.00   0.00  0.00  0.00  1.00  0.00  0.00  0.00  0.00  0.00
  YSB6556YSB1171          1.00   0.01  0.02  0.00  0.97  0.00  0.00  0.00  0.00  0.00
  YS02001907YS02006553    1.00   0.00  0.01  0.00  0.99  0.00  0.00  0.00  0.00  0.00
  YS02006558YS02006561    1.00   0.07  0.00  0.00  0.00  0.93  0.00  0.00  0.63  0.00
  YS02001633YS02163601    1.00   0.00  0.00  0.00  1.00  0.00  0.00  0.00  0.19  0.00
  YS02001644YS02001647    1.00   0.00  0.07  0.00  0.93  0.00  0.00  0.00  0.00  0.00
  YS02001745YS02001748    1.00   0.00  0.00  0.00  0.87  0.02  0.00  0.12  0.07  0.00
  YS02001748YS02001751    1.00   0.00  0.00  0.00  0.97  0.03  0.00  0.00  0.23  0.00
  YS02001751YS02001754    1.00   0.00  0.00  0.00  0.92  0.00  0.00  0.08  0.01  0.00
  YS02001754YS02001757    1.00   0.00  0.00  0.00  1.00  0.00  0.00  0.00  0.26  0.00
  YS02001882YS02001884    1.00   0.05  0.01  0.00  0.94  0.00  0.00  0.00  0.00  0.00
  YS02001884YS02001887    1.00   0.02  0.01  0.00  0.97  0.00  0.00  0.00  0.00  0.00
  YS02001890YS02001895    1.00   0.00  0.06  0.00  0.94  0.00  0.00  0.00  0.00  0.00
  YS02001895YS02001898    1.00   0.06  0.00  0.00  0.93  0.00  0.01  0.00  0.00  0.00
  YS02001898YS02001901    1.00   0.06  0.01  0.00  0.94  0.00  0.00  0.00  0.02  0.00
  YS02001901YS02001904    1.00   0.06  0.00  0.00  0.94  0.00  0.00  0.00  0.00  0.00
  YS02001904YS02001907    1.00   0.00  0.06  0.00  0.94  0.00  0.00  0.00  0.00  0.00
  YS02001887YS02001890    1.00   0.00  0.00  0.00  0.99  0.00  0.01  0.00  0.00  0.00
  YS02001652YS02001649    1.00   0.00  0.00  0.00  1.00  0.00  0.00  0.00  0.25  0.00
  YS02001655YS02001652    1.00   0.00  0.00  0.00  0.92  0.00  0.00  0.08  0.02  0.00
  YS02001658YS02001655    1.00   0.00  0.05  0.00  0.91  0.04  0.00  0.00  0.09  0.00
  YS02001661YS02001658    1.00   0.05  0.00  0.00  0.87  0.08  0.00  0.00  0.10  0.00
  YS02001664YS02001661    1.00   0.04  0.00  0.00  0.79  0.17  0.00  0.00  0.31  0.00
  YSB1154YSB6556          1.00   0.03  0.00  0.00  0.97  0.00  0.00  0.00  0.02  0.00
  YSB1174YSB1171          1.00   0.01  0.01  0.00  0.97  0.00  0.00  0.00  0.00  0.00
  YSB1171HS02004479       1.00   0.01  0.00  0.00  0.99  0.00  0.00  0.00  0.13  0.00
  HS02004881HS02006253    1.00   0.01  0.00  0.00  0.00  0.00  0.00  0.99  0.00  0.00
  YS02001793JiankangQianchi    1.00   0.00  0.00  0.00  1.00  0.00  0.00  0.00  0.58  0.00
  YS02001757CaochengTiaoxuchi    1.00   0.00  0.09  0.00  0.91  0.00  0.00  0.00  0.00  0.00
  WSF200WS02003060        1.00   0.00  0.10  0.00  0.90  0.00  0.00  0.00  0.63  0.00
  1                       1.00   0.00  0.00  0.00  0.00  1.00  0.00  0.00  0.33  0.00
  2                       1.00   1.00  0.00  0.00  0.00  0.00  0.00  0.00  0.00  0.00
  3                       1.00   0.19  0.00  0.00  0.00  0.81  0.00  0.00  0.01  0.00
  4                       1.00   1.00  0.00  0.00  0.00  0.00  0.00  0.00  0.00  0.00
  
  
  *************************
  Conduit Surcharge Summary
  *************************
  
  ----------------------------------------------------------------------------
                                                           Hours        Hours 
                         --------- Hours Full --------   Above Full   Capacity
  Conduit                Both Ends  Upstream  Dnstream   Normal Flow   Limited
  ----------------------------------------------------------------------------
  WS02006229WS02006228        0.09      0.15      0.09      0.66         0.09
  WS02006256WS02006235        3.05      3.07      5.62      3.34         0.01
  WS02006235WS02006234        0.01      0.01      0.01      3.12         0.01
  WS02006231WS02006230        0.01      0.01      0.01      3.36         0.01
  WS02006230WS02006229        0.38      0.43      0.38      4.34         0.38
  WS02006228WS02006109        0.14      0.28      0.14      1.11         0.14
  WS02006111WS02006112        0.01      0.01      0.78      0.01         0.01
  WS02006110WS02006113        0.01      0.01      0.21      0.01         0.01
  WS02006109WS02006110        0.01      0.01      0.28      0.01         0.01
  WS02004404WS02004405        0.01      0.01      0.01      3.14         0.01
  WS02003072WS02003073        0.01      0.01      0.01      2.10         0.01
  YS02001759YS02001757        5.39      5.39      5.46      0.01         0.01
  YS02001762YS02001759        5.35      5.35      5.39      0.01         0.02
  YS02001765YS02001762        5.32      5.32      5.35      0.01         0.01
  YS02001770YS02001767        5.29      5.30      5.30      0.01         0.39
  YS02001774YS02001770        5.26      5.26      5.34      0.01         0.01
  YS02001779YS02001774        4.78      4.78      5.34      0.01         0.01
  YS02001649YS02001757        5.36      5.36      5.46      0.01         0.01
  YS02001767YS02001765        5.30      5.30      5.32      0.01         0.02
  YS02001784YS02001785        0.01      0.01      0.01      0.43         0.01
  YS02001791YS02001793        0.01      0.01      0.16      0.01         0.01
  YS02001629YS02163301        5.26      5.26      5.28      0.01         0.01
  YS02001619YS02001622        4.44      4.44      4.50      0.01         0.01
  YS02001622YS02001625        4.50      4.50      5.16      0.01         0.01
  YS02001625YS02001629        4.47      4.47      5.16      0.01         0.01
  YS02163301YS02001633        5.28      5.28      5.33      0.01         0.01
  YS02163601YS02164001        5.33      5.33      5.37      0.01         0.01
  YS02164001YS02001641        5.33      5.33      5.33      0.01         0.01
  YS02001641YS02001644        5.33      5.33      5.34      0.01         0.48
  YS02001647YS02001649        5.11      5.11      5.36      0.01         0.01
  YS02001907YS02006553        0.45      0.45      0.78      0.01         0.01
  YS02006558YS02006561        0.01      0.01      0.01      0.12         0.01
  YS02001633YS02163601        5.31      5.31      5.37      0.01         0.01
  YS02001644YS02001647        5.11      5.11      5.34      0.01         0.01
  YS02001745YS02001748        0.01      0.01      4.09      0.01         0.01
  YS02001748YS02001751        4.21      4.21      4.51      0.01         0.01
  YS02001751YS02001754        4.51      4.51      4.88      0.01         0.01
  YS02001754YS02001757        5.09      5.09      5.46      0.01         0.01
  YS02001652YS02001649        5.13      5.13      5.36      0.01         0.01
  YS02001655YS02001652        4.55      4.55      5.05      0.01         0.01
  YS02001658YS02001655        4.11      4.11      4.55      0.01         0.01
  YS02001661YS02001658        0.01      0.01      4.11      0.01         0.01
  YS02001664YS02001661        0.01      0.01      0.10      0.01         0.01
  YS02001793JiankangQianchi        0.01      0.01      7.82      0.01         0.01
  YS02001757CaochengTiaoxuchi        4.28      4.28      5.46      0.01         0.01
  3                           0.01      0.01      0.01      0.01         0.01
  
  
  ***************
  Pumping Summary
  ***************
  
  ---------------------------------------------------------------------------------------------------------
                                                  Min       Avg       Max     Total     Power    % Time Off
                        Percent   Number of      Flow      Flow      Flow    Volume     Usage    Pump Curve
  Pump                 Utilized   Start-Ups       LPS       LPS       LPS  10^6 ltr     Kw-hr    Low   High
  ---------------------------------------------------------------------------------------------------------
  CC-Pump-1                0.00           0      0.00      0.00      0.00     0.000      0.00    0.0    0.0
  CC-Pump-2                0.00           0      0.00      0.00      0.00     0.000      0.00    0.0    0.0
  JK-Pump-1               42.88          11      0.00    300.00    300.00     3.628     28.95    0.0    0.0
  JK-Pump-2                5.05          11      0.00    300.00    300.00     0.428      3.05    0.0    0.0
  XR-Pump-1              100.00           1      0.00     95.00     95.00     2.679     17.28    0.0    0.0
  XR-Pump-2               94.70           1      0.00     95.00     95.00     2.537     15.85    0.0    0.0
  XR-Pump-3               64.33           2      0.00     95.00     95.00     1.724      9.64    0.0    0.0
  XR-Pump-4                0.00           0      0.00      0.00      0.00     0.000      0.00    0.0    0.0
  

  Analysis begun on:  Wed Jan  5 21:57:00 2022
  Analysis ended on:  Wed Jan  5 21:57:01 2022
  Total elapsed time: 00:00:01