
  EPA STORM WATER MANAGEMENT MODEL - VERSION 5.1 (Build 5.3.0.dev0)
  --------------------------------------------------------------

  WARNING 04: minimum elevation drop used for Conduit WS02004404WS02004405
  WARNING 03: negative offset ignored for Link YS02001904YS02001907
  
  *********************************************************
  NOTE: The summary statistics displayed in this report are
  based on results found at every computational time step,  
  not just on results from each reporting time step.
  *********************************************************
  
  ****************
  Analysis Options
  ****************
  Flow Units ............... LPS
  Process Models:
    Rainfall/Runoff ........ YES
    RDII ................... NO
    Snowmelt ............... NO
    Groundwater ............ NO
    Flow Routing ........... YES
    Ponding Allowed ........ NO
    Water Quality .......... NO
  Infiltration Method ...... HORTON
  Flow Routing Method ...... DYNWAVE
  Surcharge Method ......... EXTRAN
  Starting Date ............ 08/28/2015 08:00:00
  Ending Date .............. 08/28/2015 15:50:00
  Antecedent Dry Days ...... 8.0
  Report Time Step ......... 00:01:00
  Wet Time Step ............ 00:01:00
  Dry Time Step ............ 00:01:00
  Routing Time Step ........ 5.00 sec
  Variable Time Step ....... YES
  Maximum Trials ........... 8
  Number of Threads ........ 4
  Head Tolerance ........... 0.001500 m
  
  
  **************************        Volume         Depth
  Runoff Quantity Continuity     hectare-m            mm
  **************************     ---------       -------
  Total Precipitation ......         6.144        13.452
  Evaporation Loss .........         0.000         0.000
  Infiltration Loss ........         1.572         3.442
  Surface Runoff ...........         3.480         7.619
  Final Storage ............         1.093         2.393
  Continuity Error (%) .....        -0.016
  
  
  **************************        Volume        Volume
  Flow Routing Continuity        hectare-m      10^6 ltr
  **************************     ---------     ---------
  Dry Weather Inflow .......         0.616         6.165
  Wet Weather Inflow .......         3.479        34.789
  Groundwater Inflow .......         0.000         0.000
  RDII Inflow ..............         0.000         0.000
  External Inflow ..........         0.102         1.024
  External Outflow .........         2.063        20.633
  Flooding Loss ............         1.616        16.162
  Evaporation Loss .........         0.000         0.000
  Exfiltration Loss ........         0.000         0.000
  Initial Stored Volume ....         0.076         0.761
  Final Stored Volume ......         0.650         6.502
  Continuity Error (%) .....        -1.310
  
  
  *************************
  Highest Continuity Errors
  *************************
  Node HS02004842 (15.27%)
  Node YS02001884 (11.38%)
  Node JK-storage (-5.15%)
  Node YSB1171 (2.79%)
  Node HS02004817 (2.78%)
  
  
  ***************************
  Time-Step Critical Elements
  ***************************
  Link 3 (53.63%)
  Link WS02006252WS02006251 (36.20%)
  Link WS02006238WS02006235 (3.75%)
  Link WS02006280WS02006229 (1.40%)
  
  
  ********************************
  Highest Flow Instability Indexes
  ********************************
  Link YS02163301YS02001633 (38)
  Link YS02163601YS02164001 (38)
  Link YS02001629YS02163301 (38)
  Link YS02001619YS02001622 (37)
  Link YS02164001YS02001641 (35)
  
  
  *************************
  Routing Time Step Summary
  *************************
  Minimum Time Step           :     0.02 sec
  Average Time Step           :     0.78 sec
  Maximum Time Step           :     5.00 sec
  Percent in Steady State     :    -0.00
  Average Iterations per Step :     4.44
  Percent Not Converging      :    19.05
  
  
  ***************************
  Subcatchment Runoff Summary
  ***************************
  
  ------------------------------------------------------------------------------------------------------------------------------
                            Total      Total      Total      Total     Imperv       Perv      Total       Total     Peak  Runoff
                           Precip      Runon       Evap      Infil     Runoff     Runoff     Runoff      Runoff   Runoff   Coeff
  Subcatchment                 mm         mm         mm         mm         mm         mm         mm    10^6 ltr      LPS
  ------------------------------------------------------------------------------------------------------------------------------
  sub0                      13.45       0.00       0.00       0.89      11.25       0.05      11.30        0.01     3.67   0.840
  sub1                      13.45       0.00       0.00       1.45      10.71       0.03      10.74        0.07    24.31   0.799
  sub2                      13.45       0.00       0.00       4.95       7.56       0.02       7.58        0.07    22.93   0.564
  sub3                      13.45       0.00       0.00       4.96       7.52       0.02       7.54        0.17    51.30   0.560
  sub4                      13.45       0.00       0.00       1.46      10.54       0.02      10.56        0.22    61.94   0.785
  sub5                      13.45       0.00       0.00       0.91      11.19       0.03      11.22        0.13    43.21   0.834
  sub7                      13.45       0.00       0.00       1.17      10.98       0.04      11.03        0.04    13.69   0.820
  sub8                      13.45       0.00       0.00       1.17      10.97       0.04      11.01        0.07    25.15   0.819
  sub9                      13.45       0.00       0.00       1.17      10.97       0.04      11.01        0.05    18.81   0.818
  sub10                     13.45       0.00       0.00       1.04      11.08       0.03      11.11        0.12    42.29   0.826
  sub11                     13.45       0.00       0.00       1.04      11.10       0.04      11.14        0.13    46.68   0.828
  sub12                     13.45       0.00       0.00       1.69      10.51       0.06      10.58        0.09    35.94   0.786
  sub14                     13.45       0.00       0.00       1.17      10.97       0.04      11.01        0.10    37.02   0.818
  sub15                     13.45       0.00       0.00       4.00       8.43       0.04       8.47        0.15    51.03   0.630
  sub16                     13.45       0.00       0.00       4.38       8.09       0.06       8.15        0.09    32.58   0.606
  sub17                     13.45       0.00       0.00       4.25       8.21       0.06       8.27        0.07    26.73   0.615
  sub22                     13.45       0.00       0.00       5.74       6.88       0.04       6.92        0.44   159.06   0.514
  sub23                     13.45       0.00       0.00       4.93       7.60       0.05       7.65        0.36   133.95   0.569
  sub60                     13.45       0.00       0.00       1.61       8.73       0.00       8.74        2.65   387.96   0.649
  sub61                     13.45       0.00       0.00       2.28       8.88       0.00       8.88        2.74   483.52   0.660
  sub62                     13.45       0.00       0.00       1.07       9.65       0.00       9.66        2.97   496.42   0.718
  sub63                     13.45       0.00       0.00       3.90       7.77       0.00       7.77        2.35   446.68   0.578
  sub64                     13.45       0.00       0.00       2.01       8.38       0.00       8.38        2.55   368.35   0.623
  sub65                     13.45       0.00       0.00       1.75       8.52       0.00       8.52        2.62   373.60   0.634
  sub66                     13.45       0.00       0.00       3.90       7.19       0.00       7.19        2.21   337.96   0.535
  sub67                     13.45       0.00       0.00       1.07      10.19       0.01      10.19        3.15   622.58   0.758
  sub68                     13.45       0.00       0.00       1.88       9.34       0.01       9.34        2.87   531.38   0.694
  sub69                     13.45       0.00       0.00       2.01       9.68       0.01       9.69        2.26   503.32   0.720
  sub70                     13.45       9.89       0.00       7.67      12.93       0.26      13.20        3.02   423.72   0.565
  sub71                     13.45       0.00       0.00       1.07       9.40       0.00       9.40        2.22   347.35   0.699
  sub72                     13.45       0.00       0.00       0.94       7.49       0.00       7.50        1.53   163.23   0.557
  sub73                     13.45      12.84       0.00       8.67      14.26       0.27      14.53        3.41   375.92   0.552
  sub74                     13.45       0.00       0.00      10.09       2.88       0.00       2.89        1.15   273.25   0.215
  
  
  ******************
  Node Depth Summary
  ******************
  
  ---------------------------------------------------------------------------------
                                 Average  Maximum  Maximum  Time of Max    Reported
                                   Depth    Depth      HGL   Occurrence   Max Depth
  Node                 Type       Meters   Meters   Meters  days hr:min      Meters
  ---------------------------------------------------------------------------------
  WS02001211           JUNCTION     0.64     0.80     5.64     0  03:12        0.80
  WS02001212           JUNCTION     0.37     0.52     5.59     0  03:12        0.52
  WS02001213           JUNCTION     0.62     0.79     5.55     0  03:11        0.79
  WS02003069           JUNCTION     0.45     0.63     5.21     0  03:12        0.63
  WS02003072           JUNCTION     0.52     0.68     5.05     0  03:13        0.68
  WS02003073           JUNCTION     0.31     0.42     4.49     0  03:14        0.42
  WS02003060           JUNCTION     0.40     0.56     5.49     0  03:12        0.56
  WS02003066           JUNCTION     0.25     0.35     5.91     0  03:05        0.35
  WS02003059           JUNCTION     0.68     0.84     5.53     0  03:12        0.84
  WS02003067           JUNCTION     0.61     0.78     6.10     0  03:05        0.78
  WS02004401           JUNCTION     0.72     1.09     7.09     0  03:03        1.09
  WS02004402           JUNCTION     0.75     1.09     7.05     0  03:03        1.09
  WS02004403           JUNCTION     0.77     1.08     7.01     0  03:03        1.08
  WS02004404           JUNCTION     0.84     1.14     6.99     0  03:03        1.14
  WS02004406           JUNCTION     0.84     1.09     6.92     0  03:03        1.09
  WS02004409           JUNCTION     0.54     0.83     6.60     0  03:04        0.83
  WS02004410           JUNCTION     0.56     0.84     6.56     0  03:04        0.83
  WS02004411           JUNCTION     0.57     0.83     6.51     0  03:04        0.83
  WS02004412           JUNCTION     0.58     0.82     6.46     0  03:05        0.82
  WS02004413           JUNCTION     0.74     0.96     6.43     0  03:05        0.96
  WS02004405           JUNCTION     0.84     1.12     6.97     0  03:03        1.12
  WS02006109           JUNCTION     0.81     1.23     7.85     0  03:02        1.22
  WS02006110           JUNCTION     0.79     1.09     7.67     0  03:02        1.08
  WS02006111           JUNCTION     0.25     0.56     7.27     0  03:03        0.56
  WS02006112           JUNCTION     0.90     1.36     7.24     0  03:03        1.35
  WS02006113           JUNCTION     0.37     0.58     7.48     0  03:03        0.58
  WS02006115           JUNCTION     0.62     1.03     7.17     0  03:03        1.03
  WS02006116           JUNCTION     0.70     1.09     7.13     0  03:03        1.09
  WS02006230           JUNCTION     0.81     1.33     8.08     0  03:02        1.33
  WS02006231           JUNCTION     0.55     0.97     8.09     0  03:02        0.96
  WS02006232           JUNCTION     0.68     1.06     8.10     0  03:02        1.05
  WS02006234           JUNCTION     0.60     0.95     8.11     0  03:02        0.94
  WS02006235           JUNCTION     0.63     0.95     8.12     0  03:02        0.95
  WS02006238           JUNCTION     0.66     0.98     8.12     0  03:02        0.96
  WS02006240           JUNCTION     0.56     0.82     8.12     0  03:02        0.82
  WS02006242           JUNCTION     0.61     0.86     8.13     0  02:40        0.86
  WS02006243           JUNCTION     0.49     0.75     8.17     0  02:40        0.75
  WS02006245           JUNCTION     0.46     0.71     8.20     0  02:40        0.71
  WS02006247           JUNCTION     0.47     0.72     8.22     0  02:40        0.72
  WS02006248           JUNCTION     0.41     0.65     8.23     0  02:40        0.65
  WS02006249           JUNCTION     0.44     0.65     8.25     0  02:40        0.65
  WS02006239           JUNCTION     0.62     0.90     8.11     0  03:02        0.90
  WS02006251           JUNCTION     0.43     0.70     8.37     0  02:40        0.70
  WS02006252           JUNCTION     0.36     0.59     8.84     0  04:57        0.59
  WS02006253           JUNCTION     0.45     0.73     8.37     0  02:40        0.73
  WS02006256           JUNCTION     1.10     1.22     8.16     0  03:00        1.22
  WS02004138           JUNCTION     0.14     0.19     7.44     0  00:40        0.19
  WS02004407           JUNCTION     0.24     0.36     6.67     0  03:04        0.36
  WS02006228           JUNCTION     0.82     1.34     7.99     0  03:02        1.33
  WS02006229           JUNCTION     0.81     1.37     8.07     0  03:02        1.37
  WS02006280           JUNCTION     0.08     0.24     8.52     0  03:02        0.24
  WS02006284           JUNCTION     0.38     0.63     9.02     0  03:02        0.62
  WS02006287           JUNCTION     0.11     0.37     9.32     0  03:02        0.37
  WSF200               JUNCTION     0.24     0.38     5.61     0  03:08        0.38
  HS02004901           JUNCTION     0.14     0.35    10.17     0  03:01        0.35
  HS02004881           JUNCTION     0.01     0.05     9.08     0  03:01        0.05
  HS02004876           JUNCTION     0.05     0.15     9.18     0  03:01        0.15
  HS02004870           JUNCTION     0.02     0.09     9.37     0  03:01        0.09
  HS02004862           JUNCTION     0.02     0.10     9.49     0  03:01        0.10
  HS02004856           JUNCTION     0.08     0.15     9.57     0  03:01        0.15
  HS02004852           JUNCTION     0.01     0.07     9.58     0  03:02        0.07
  HS02004848           JUNCTION     0.01     0.06     9.67     0  03:01        0.06
  HS02004842           JUNCTION     0.34     0.40     9.67     0  03:01        0.40
  HS02004837           JUNCTION     0.03     0.09     9.67     0  03:01        0.09
  HS02004830           JUNCTION     0.04     0.10     9.57     0  03:01        0.10
  HS02004824           JUNCTION     0.03     0.11     9.51     0  03:02        0.11
  HS02004817           JUNCTION     0.45     0.67     9.52     0  03:02        0.67
  HS02004807           JUNCTION     0.14     0.34     9.51     0  03:02        0.34
  HS02004802           JUNCTION     0.17     0.38     9.50     0  03:02        0.38
  HS02004799           JUNCTION     0.14     0.43     9.65     0  03:01        0.43
  HS02004792           JUNCTION     0.04     0.20     9.72     0  03:01        0.19
  HS02004788           JUNCTION     0.03     0.14    10.04     0  03:02        0.14
  HS02004785           JUNCTION     0.06     0.23    10.13     0  03:02        0.23
  HS02004777           JUNCTION     0.16     0.37    10.17     0  03:01        0.37
  HS02004770           JUNCTION     0.13     0.34    10.17     0  03:01        0.34
  HS02004480           JUNCTION     0.10     0.35     9.59     0  03:01        0.35
  HS02004479           JUNCTION     0.13     0.39     9.60     0  03:01        0.39
  HS02004478           JUNCTION     0.07     0.26     9.48     0  03:01        0.26
  YS02001745           JUNCTION     0.69     0.89     8.41     0  03:20        0.89
  YS02001748           JUNCTION     1.08     2.27     9.35     0  02:47        1.34
  YS02001751           JUNCTION     1.26     2.20     9.08     0  02:43        1.54
  YS02001754           JUNCTION     1.51     2.17     8.78     0  02:48        1.81
  YS02001762           JUNCTION     1.71     2.15     8.55     0  07:50        2.15
  YS02001765           JUNCTION     1.67     2.10     8.55     0  07:50        2.10
  YS02001767           JUNCTION     1.63     2.03     8.52     0  07:50        2.03
  YS02001770           JUNCTION     1.63     1.95     8.44     0  02:47        1.95
  YS02001774           JUNCTION     1.69     2.05     8.47     0  07:50        2.05
  YS02001779           JUNCTION     1.44     1.68     8.37     0  02:46        1.68
  YS02001882           JUNCTION     0.60     1.83     8.55     0  02:49        1.63
  YS02001884           JUNCTION     0.70     1.92     8.53     0  02:49        1.73
  YS02001759           JUNCTION     1.75     2.13     8.50     0  02:48        2.10
  YS02001887           JUNCTION     0.78     1.92     8.46     0  02:49        1.80
  YS02001890           JUNCTION     0.80     1.81     8.32     0  02:49        1.81
  YS02001898           JUNCTION     0.57     1.58     8.32     0  02:49        1.55
  YS02001901           JUNCTION     0.69     1.68     8.29     0  02:52        1.67
  YS02001904           JUNCTION     0.67     1.64     8.27     0  02:52        1.63
  YS02001907           JUNCTION     1.00     1.96     8.25     0  02:52        1.96
  YS02001910           JUNCTION     0.79     1.96     8.46     0  02:52        1.78
  YS02001915           JUNCTION     0.59     1.85     8.56     0  02:52        1.61
  YS02001918           JUNCTION     0.32     1.81     8.88     0  02:52        1.29
  YS02001619           JUNCTION     1.23     1.61     8.54     0  02:44        1.48
  YS02001629           JUNCTION     1.58     1.85     8.40     0  02:44        1.84
  YS02001641           JUNCTION     1.68     1.96     8.40     0  02:47        1.93
  YS02001644           JUNCTION     1.68     1.92     8.35     0  02:47        1.92
  YS02001652           JUNCTION     1.53     2.16     8.76     0  02:54        2.00
  YS02001655           JUNCTION     1.29     2.20     9.05     0  02:40        1.90
  YS02001920           JUNCTION     0.42     1.64     8.65     0  02:52        1.38
  YS02001923           JUNCTION     0.25     1.28     8.54     0  02:53        1.14
  YS02001926           JUNCTION     0.30     1.26     8.70     0  02:53        1.00
  YS02001929           JUNCTION     0.17     0.80     8.49     0  02:53        0.77
  YS02001658           JUNCTION     1.02     2.30     9.44     0  02:44        1.80
  YS02001661           JUNCTION     0.80     2.46     9.86     0  02:58        1.81
  YS02001664           JUNCTION     0.36     0.57     8.49     0  04:02        0.56
  YS02001622           JUNCTION     1.25     1.62     8.52     0  02:44        1.50
  YS02001633           JUNCTION     1.67     1.97     8.42     0  02:47        1.94
  YS02001649           JUNCTION     1.72     2.05     8.44     0  02:45        2.05
  YS02001757           JUNCTION     1.84     2.21     8.47     0  02:47        2.17
  YS02001895           JUNCTION     0.57     1.64     8.38     0  02:49        1.56
  YS02001625           JUNCTION     1.53     1.78     8.38     0  02:44        1.78
  YS02163301           JUNCTION     1.61     1.90     8.42     0  02:47        1.88
  YS02163601           JUNCTION     1.72     2.02     8.42     0  02:47        1.98
  YS02164001           JUNCTION     1.66     1.96     8.42     0  02:47        1.91
  YS02001647           JUNCTION     1.51     1.81     8.42     0  02:48        1.79
  YSB1154              JUNCTION     0.27     0.54     9.60     0  03:01        0.54
  YSB6556              JUNCTION     0.17     0.43     9.60     0  03:02        0.43
  YSB1174              JUNCTION     0.22     0.49     9.60     0  03:01        0.49
  YSB1171              JUNCTION     0.42     0.69     9.60     0  03:01        0.69
  YS02006553           JUNCTION     1.00     1.98     8.26     0  02:52        1.96
  YS02006561           JUNCTION     0.36     1.17     7.83     0  02:52        1.09
  YS02006556           JUNCTION     0.96     1.96     8.27     0  02:52        1.92
  YS02006558           JUNCTION     1.01     2.00     8.27     0  02:52        1.97
  YS02001783           JUNCTION     0.59     1.89     8.03     0  02:48        1.48
  YS02001784           JUNCTION     0.61     2.29     8.36     0  02:48        1.41
  YS02001786           JUNCTION     0.55     2.23     8.26     0  02:48        1.26
  YS02001788           JUNCTION     0.48     2.28     8.26     0  02:48        1.13
  YS02001790           JUNCTION     0.61     1.96     7.60     0  02:48        1.29
  YS02001791           JUNCTION     0.58     1.93     7.40     0  02:47        1.27
  YS02001793           JUNCTION     0.82     3.60     8.43     0  05:14        1.80
  WS02004139           JUNCTION     0.58     0.74     5.65     0  03:12        0.74
  WSC                  OUTFALL      0.31     0.42     1.09     0  03:14        0.42
  3                    OUTFALL      0.12     0.22     6.22     0  03:00        0.22
  4                    OUTFALL      0.03     0.15     7.15     0  02:40        0.15
  5                    OUTFALL      0.00     0.00     5.00     0  00:00        0.00
  JK-storage           STORAGE      3.15     5.80     6.60     0  02:48        5.80
  CC-storage           STORAGE      1.06     1.38     8.38     0  03:23        1.38
  XR-storage           STORAGE      7.28     7.72     5.72     0  02:39        7.72
  
  
  *******************
  Node Inflow Summary
  *******************
  
  -------------------------------------------------------------------------------------------------
                                  Maximum  Maximum                  Lateral       Total        Flow
                                  Lateral    Total  Time of Max      Inflow      Inflow     Balance
                                   Inflow   Inflow   Occurrence      Volume      Volume       Error
  Node                 Type           LPS      LPS  days hr:min    10^6 ltr    10^6 ltr     Percent
  -------------------------------------------------------------------------------------------------
  WS02001211           JUNCTION      7.35   375.14     0  02:00       0.207        6.16       0.636
  WS02001212           JUNCTION      0.00   367.97     0  03:11           0        6.12       0.363
  WS02001213           JUNCTION      0.00   369.92     0  03:13           0         6.1       0.378
  WS02003069           JUNCTION      0.32  1072.56     0  03:12     0.00902          15       0.224
  WS02003072           JUNCTION      0.00  1071.91     0  03:13           0        14.9       0.266
  WS02003073           JUNCTION      1.82  1073.47     0  03:13      0.0514        14.9       0.303
  WS02003060           JUNCTION     16.53  1072.60     0  03:12       0.466          15       0.211
  WS02003066           JUNCTION      0.00   779.72     0  03:05           0        8.49       0.059
  WS02003059           JUNCTION      0.00   373.11     0  03:13           0        6.08       0.695
  WS02003067           JUNCTION      0.00   779.37     0  03:05           0         8.5       0.121
  WS02004401           JUNCTION      0.00   782.37     0  03:03           0        8.76       0.276
  WS02004402           JUNCTION      0.00   782.42     0  03:03           0        8.74       0.256
  WS02004403           JUNCTION      0.00   782.48     0  03:03           0        8.72       0.231
  WS02004404           JUNCTION      0.16   782.71     0  03:03     0.00457         8.7       0.171
  WS02004406           JUNCTION      0.00   782.78     0  03:03           0        8.67       0.417
  WS02004409           JUNCTION      0.00   782.63     0  03:04           0        8.62       0.225
  WS02004410           JUNCTION      0.00   781.13     0  03:04           0         8.6       0.249
  WS02004411           JUNCTION      0.00   780.10     0  03:04           0        8.58       0.252
  WS02004412           JUNCTION      0.00   779.49     0  03:04           0        8.56       0.267
  WS02004413           JUNCTION      0.00   779.30     0  03:05           0        8.54       0.388
  WS02004405           JUNCTION      0.04   782.76     0  03:03     0.00107        8.69       0.255
  WS02006109           JUNCTION      1.23   767.00     0  03:02      0.0347        8.83       0.231
  WS02006110           JUNCTION      0.00   766.92     0  03:02           0        8.81       0.261
  WS02006111           JUNCTION      0.00   764.17     0  03:03           0        8.78       0.061
  WS02006112           JUNCTION     26.73   781.96     0  03:03      0.0709        8.84       0.367
  WS02006113           JUNCTION      0.00   767.01     0  03:02           0        8.79       0.132
  WS02006115           JUNCTION      0.00   781.97     0  03:03           0        8.81       0.278
  WS02006116           JUNCTION      0.00   782.16     0  03:03           0        8.79       0.242
  WS02006230           JUNCTION     10.28   402.41     0  05:00        0.29        6.74       0.201
  WS02006231           JUNCTION      0.00   392.24     0  05:00           0        6.47       0.250
  WS02006232           JUNCTION      0.00   392.23     0  05:00           0        6.49       0.269
  WS02006234           JUNCTION      0.00   392.71     0  06:21           0         6.5       0.165
  WS02006235           JUNCTION      0.00   393.56     0  05:42           0        6.54       0.189
  WS02006238           JUNCTION      0.00   332.16     0  05:20           0        4.45       0.195
  WS02006240           JUNCTION      0.00   333.47     0  05:20           0        4.45       0.360
  WS02006242           JUNCTION      0.00   336.49     0  04:41           0        4.45       0.422
  WS02006243           JUNCTION      0.00   338.81     0  02:10           0        4.45       0.069
  WS02006245           JUNCTION      0.00   345.84     0  02:09           0        4.46       0.325
  WS02006247           JUNCTION      0.00   352.96     0  02:09           0        4.47       0.230
  WS02006248           JUNCTION      0.00   358.64     0  02:09           0        4.48       0.156
  WS02006249           JUNCTION      0.00   466.25     0  02:40           0        5.09       0.311
  WS02006239           JUNCTION      0.00   333.08     0  05:20           0        4.45       0.325
  WS02006251           JUNCTION      0.08   466.94     0  02:40     0.00217        5.13       0.276
  WS02006252           JUNCTION      0.00   400.00     0  04:40           0         4.7       0.011
  WS02006253           JUNCTION      3.67   134.78     0  03:01     0.00915       0.441       1.958
  WS02006256           JUNCTION      0.00   600.00     0  03:40           0        7.27       0.036
  WS02004138           JUNCTION      0.00   379.98     0  03:10           0        5.98       0.062
  WS02004407           JUNCTION      0.00   782.79     0  03:03           0        8.63       0.102
  WS02006228           JUNCTION      0.00   765.73     0  03:02           0        8.81       0.174
  WS02006229           JUNCTION      0.00   765.92     0  03:02           0        8.83       0.148
  WS02006280           JUNCTION      0.00   611.95     0  03:02           0         2.1       0.003
  WS02006284           JUNCTION      0.10   611.06     0  03:02      0.0027         2.1       0.059
  WS02006287           JUNCTION      0.00   609.83     0  03:02           0         2.1       0.034
  WSF200               JUNCTION      0.00   779.73     0  03:05           0        8.49       0.061
  HS02004901           JUNCTION     32.58    32.58     0  03:01      0.0854      0.0856       2.108
  HS02004881           JUNCTION     13.69   131.68     0  03:01      0.0372       0.403       0.051
  HS02004876           JUNCTION     24.31   119.37     0  03:01      0.0714       0.367       0.153
  HS02004870           JUNCTION     25.15    96.63     0  03:01      0.0703       0.295       0.038
  HS02004862           JUNCTION     23.13    73.48     0  03:01      0.0763       0.225       0.079
  HS02004856           JUNCTION     18.81    51.88     0  03:01      0.0529        0.15       0.974
  HS02004852           JUNCTION      0.00    35.11     0  03:01           0      0.0975       0.061
  HS02004848           JUNCTION     51.30    51.30     0  03:01        0.17        0.17       0.031
  HS02004842           JUNCTION      0.00    15.11     0  03:01           0      0.0852      18.027
  HS02004837           JUNCTION     48.64    62.30     0  03:01       0.302       0.374       0.217
  HS02004830           JUNCTION      0.15    61.39     0  03:01     0.00423       0.364       0.340
  HS02004824           JUNCTION     61.99   121.76     0  03:01       0.222       0.584       0.093
  HS02004817           JUNCTION      0.60   117.99     0  03:02      0.0169       0.601       2.855
  HS02004807           JUNCTION     46.68   158.06     0  03:01       0.129       0.713       0.602
  HS02004802           JUNCTION      0.00   156.92     0  03:03           0       0.709       0.572
  HS02004799           JUNCTION     37.02   389.10     0  03:01       0.105        1.19       0.208
  HS02004792           JUNCTION    159.34   356.44     0  03:01       0.445        1.08       0.039
  HS02004788           JUNCTION     52.70   202.58     0  03:02       0.193       0.638       0.062
  HS02004785           JUNCTION      0.15   157.28     0  03:01     0.00423       0.447       0.112
  HS02004777           JUNCTION      0.03   160.02     0  03:01    0.000846       0.447       1.175
  HS02004770           JUNCTION    133.95   163.77     0  03:01       0.365       0.449       0.699
  HS02004480           JUNCTION      0.00   456.69     0  03:01           0         1.4       0.083
  HS02004479           JUNCTION      0.00    72.19     0  03:02           0       0.228       0.322
  HS02004478           JUNCTION      0.00   609.31     0  03:02           0         2.1       0.018
  YS02001745           JUNCTION    387.96   426.01     0  02:46        2.65        2.65       0.397
  YS02001748           JUNCTION      0.04   641.83     0  02:46     0.00127        2.64       0.873
  YS02001751           JUNCTION      0.01   398.77     0  03:01     0.00031        2.61       0.898
  YS02001754           JUNCTION      0.26   399.09     0  03:01     0.00733         2.6       0.962
  YS02001762           JUNCTION      0.00   387.61     0  02:55           0        1.72       1.244
  YS02001765           JUNCTION      0.00   387.70     0  02:55           0        1.72       1.440
  YS02001767           JUNCTION      0.54   387.50     0  02:55      0.0151        1.74       2.100
  YS02001770           JUNCTION    496.57   496.57     0  03:01        2.97        3.08       1.035
  YS02001774           JUNCTION      0.00   415.50     0  03:25           0        1.43       1.784
  YS02001779           JUNCTION      0.01   415.66     0  03:25    0.000141         1.4       1.096
  YS02001882           JUNCTION      0.00    25.04     0  02:49           0      0.0204      12.771
  YS02001884           JUNCTION      0.00    28.04     0  02:47           0       0.056      12.845
  YS02001759           JUNCTION    483.56   779.70     0  02:56        2.74        4.32       0.535
  YS02001887           JUNCTION    623.03   623.17     0  03:01        3.16        3.19       0.277
  YS02001890           JUNCTION      0.00   623.07     0  03:01           0        3.14       0.300
  YS02001898           JUNCTION      0.00   517.02     0  03:04           0        3.09       0.116
  YS02001901           JUNCTION      0.00   517.08     0  03:04           0        3.08       0.226
  YS02001904           JUNCTION      0.00   516.90     0  03:04           0        3.08       0.209
  YS02001907           JUNCTION      0.00  1078.95     0  02:54           0        6.88       0.360
  YS02001910           JUNCTION      0.00   591.09     0  02:54           0        3.81       0.319
  YS02001915           JUNCTION    347.37   590.96     0  02:54        2.22        3.86       0.164
  YS02001918           JUNCTION      0.00   320.84     0  02:54           0        1.67       0.121
  YS02001619           JUNCTION    337.96   337.96     0  03:01        2.21        2.21       0.552
  YS02001629           JUNCTION      0.00   227.99     0  02:50           0        1.58       1.843
  YS02001641           JUNCTION      0.00   481.76     0  02:51           0         4.1       0.517
  YS02001644           JUNCTION    368.39  1159.40     0  03:22        2.55        8.97       0.292
  YS02001652           JUNCTION      0.00   476.23     0  03:02           0         2.3       1.016
  YS02001655           JUNCTION      0.15   476.19     0  03:02     0.00434        2.33       1.097
  YS02001920           JUNCTION      2.87   320.83     0  02:54      0.0809        1.65       0.191
  YS02001923           JUNCTION      0.04   290.92     0  02:54     0.00106        1.55       0.044
  YS02001926           JUNCTION      0.05   226.35     0  02:54     0.00147        1.54       0.232
  YS02001929           JUNCTION    163.23   163.23     0  03:01        1.53        1.53       0.038
  YS02001658           JUNCTION      0.00   642.83     0  02:45           0        2.35       1.001
  YS02001661           JUNCTION      0.00   747.26     0  02:59           0        3.04      -0.072
  YS02001664           JUNCTION    446.68   446.68     0  03:01        2.35        3.05       0.191
  YS02001622           JUNCTION      0.00   338.12     0  03:01           0        2.19       1.461
  YS02001633           JUNCTION    373.80   481.83     0  02:50        2.63        4.15       0.780
  YS02001649           JUNCTION      0.00  1022.33     0  02:51           0        5.21       0.719
  YS02001757           JUNCTION      0.00  1985.84     0  02:52           0        9.59       0.971
  YS02001895           JUNCTION      0.00   516.93     0  03:04           0        3.09       0.164
  YS02001625           JUNCTION      0.00   338.17     0  03:01           0        2.16       1.804
  YS02163301           JUNCTION      0.00   227.76     0  02:50           0        1.55       1.567
  YS02163601           JUNCTION      0.11   481.81     0  02:50      0.0031        4.12       0.736
  YS02164001           JUNCTION      0.00   481.81     0  02:51           0         4.1       0.492
  YS02001647           JUNCTION      0.00   733.08     0  02:51           0        4.11       0.692
  YSB1154              JUNCTION     43.21    43.21     0  03:01       0.127       0.128       1.145
  YSB6556              JUNCTION      0.00    41.77     0  03:01           0       0.129       0.980
  YSB1174              JUNCTION     35.94    35.94     0  03:01      0.0924      0.0931       1.403
  YSB1171              JUNCTION      0.00    73.33     0  03:01           0       0.227       2.865
  YS02006553           JUNCTION      0.00   671.88     0  03:31           0        6.14       0.261
  YS02006561           JUNCTION      0.00   969.07     0  03:00           0        8.99       0.007
  YS02006556           JUNCTION      0.00   671.88     0  03:31           0        6.15       0.187
  YS02006558           JUNCTION    532.26   969.54     0  03:00         2.9        9.02       0.062
  YS02001783           JUNCTION      0.00   969.09     0  03:00           0        8.99       0.028
  YS02001784           JUNCTION      1.06   970.22     0  03:00      0.0299        9.02       0.045
  YS02001786           JUNCTION      0.06   970.26     0  03:01     0.00159        9.01       0.041
  YS02001788           JUNCTION      0.07   970.26     0  03:00       0.002        9.01       0.025
  YS02001790           JUNCTION      0.15   970.43     0  03:01     0.00437        9.01       0.030
  YS02001791           JUNCTION      0.00   970.44     0  03:01           0        9.01       0.011
  YS02001793           JUNCTION      0.00  1023.77     0  05:14           0        9.04      -0.005
  WS02004139           JUNCTION      0.32   379.19     0  00:40     0.00905        5.99       0.619
  WSC                  OUTFALL       0.00  1073.02     0  03:14           0        14.9       0.000
  3                    OUTFALL       0.00   548.01     0  03:00           0        5.14       0.000
  4                    OUTFALL       0.00   214.11     0  02:40           0       0.597       0.000
  5                    OUTFALL       0.00     0.00     0  00:00           0           0       0.000 ltr
  JK-storage           STORAGE       0.00  1147.42     0  05:13           0        9.19      -4.896
  CC-storage           STORAGE       0.00  1985.52     0  02:52           0        8.29       0.067
  XR-storage           STORAGE     849.17   849.17     0  03:01        10.2        10.8       0.000
  
  
  **********************
  Node Surcharge Summary
  **********************
  
  Surcharging occurs when water rises above the top of the highest conduit.
  ---------------------------------------------------------------------
                                               Max. Height   Min. Depth
                                   Hours       Above Crown    Below Rim
  Node                 Type      Surcharged         Meters       Meters
  ---------------------------------------------------------------------
  WS02004401           JUNCTION        0.29          0.087        1.573
  WS02004402           JUNCTION        0.35          0.091        1.649
  WS02004403           JUNCTION        0.37          0.083        1.947
  WS02004404           JUNCTION        0.74          0.138        2.642
  WS02004406           JUNCTION        0.60          0.092        2.358
  WS02004405           JUNCTION        0.66          0.120        2.680
  WS02006109           JUNCTION        2.91          0.411        1.409
  WS02006110           JUNCTION        1.08          0.176        1.674
  WS02006112           JUNCTION        1.17          0.355        1.325
  WS02006115           JUNCTION        0.08          0.025        2.225
  WS02006116           JUNCTION        0.11          0.034        2.256
  WS02006230           JUNCTION        0.69          0.253        1.317
  WS02006231           JUNCTION        0.89          0.260        1.270
  WS02006232           JUNCTION        3.15          0.362        1.118
  WS02006234           JUNCTION        1.05          0.229        1.011
  WS02006235           JUNCTION        2.02          0.243        1.047
  WS02006238           JUNCTION        2.50          0.256        1.174
  WS02006240           JUNCTION        1.02          0.112        1.278
  WS02006242           JUNCTION        1.97          0.133        0.687
  WS02006243           JUNCTION        0.27          0.036        0.734
  WS02006245           JUNCTION        0.01          0.003        0.847
  WS02006247           JUNCTION        0.04          0.008        0.752
  WS02006239           JUNCTION        1.33          0.162        1.128
  WS02006252           JUNCTION        2.69          0.193        0.907
  WS02006228           JUNCTION        2.77          0.511        1.689
  YS02001748           JUNCTION        5.01          1.190        0.000
  YS02001751           JUNCTION        5.09          1.200        0.000
  YS02001754           JUNCTION        5.28          1.117        0.033
  YS02001762           JUNCTION        5.51          1.150        0.000
  YS02001765           JUNCTION        5.48          1.100        0.000
  YS02001767           JUNCTION        5.46          1.030        0.000
  YS02001770           JUNCTION        5.43          0.920        0.000
  YS02001774           JUNCTION        5.50          1.050        0.000
  YS02001779           JUNCTION        5.28          0.680        0.000
  YS02001882           JUNCTION        1.00          0.830        0.000
  YS02001884           JUNCTION        1.03          0.855        0.015
  YS02001759           JUNCTION        5.54          1.135        0.075
  YS02001887           JUNCTION        1.12          0.867        0.083
  YS02001890           JUNCTION        1.15          0.760        0.000
  YS02001898           JUNCTION        0.96          0.555        0.185
  YS02001901           JUNCTION        1.08          0.683        0.187
  YS02001904           JUNCTION        1.06          0.642        0.208
  YS02001907           JUNCTION        1.65          0.950        0.000
  YS02001910           JUNCTION        1.20          0.957        0.143
  YS02001915           JUNCTION        0.99          0.846        0.154
  YS02001918           JUNCTION        0.76          0.810        0.000
  YS02001619           JUNCTION        5.11          0.610        0.000
  YS02001629           JUNCTION        5.12          0.470        0.000
  YS02001641           JUNCTION        5.50          0.962        0.138
  YS02001644           JUNCTION        5.50          0.920        0.000
  YS02001652           JUNCTION        5.29          1.130        0.000
  YS02001655           JUNCTION        5.12          1.200        0.000
  YS02001920           JUNCTION        0.80          0.638        0.502
  YS02001923           JUNCTION        0.01          0.066        0.754
  YS02001926           JUNCTION        0.01          0.258        0.642
  YS02001658           JUNCTION        5.02          1.300        0.000
  YS02001661           JUNCTION        0.24          1.390        0.000
  YS02001622           JUNCTION        5.13          0.620        0.000
  YS02001633           JUNCTION        5.48          0.948        0.112
  YS02001649           JUNCTION        5.52          1.050        0.000
  YS02001757           JUNCTION        5.62          1.210        0.000
  YS02001895           JUNCTION        0.98          0.635        0.115
  YS02001625           JUNCTION        5.30          0.780        0.000
  YS02163301           JUNCTION        5.45          0.899        0.131
  YS02163601           JUNCTION        5.52          1.021        0.059
  YS02164001           JUNCTION        5.49          0.959        0.141
  YS02001647           JUNCTION        5.29          0.810        0.090
  YS02006553           JUNCTION        1.71          0.979        0.211
  YS02006561           JUNCTION        0.88          0.375        0.775
  YS02006556           JUNCTION        1.41          0.919        0.431
  YS02006558           JUNCTION        1.38          0.899        0.501
  YS02001783           JUNCTION        1.36          1.094        0.506
  YS02001784           JUNCTION        1.38          1.490        0.000
  YS02001786           JUNCTION        1.34          1.430        0.000
  YS02001788           JUNCTION        1.34          1.480        0.000
  YS02001790           JUNCTION        2.24          1.157        0.000
  YS02001791           JUNCTION        2.45          1.131        0.789
  YS02001793           JUNCTION        2.61          2.600        0.000
  
  
  *********************
  Node Flooding Summary
  *********************
  
  Flooding refers to all water that overflows a node, whether it ponds or not.
  --------------------------------------------------------------------------
                                                             Total   Maximum
                                 Maximum   Time of Max       Flood    Ponded
                        Hours       Rate    Occurrence      Volume     Depth
  Node                 Flooded       LPS   days hr:min    10^6 ltr    Meters
  --------------------------------------------------------------------------
  YS02001748              0.01    349.88      0  02:48       0.001     0.000
  YS02001751              0.01    117.48      0  02:43       0.000     0.000
  YS02001762              0.01      0.28      0  07:50       0.000     0.000
  YS02001765              0.01      0.48      0  07:50       0.000     0.000
  YS02001767              0.01      0.46      0  07:50       0.000     0.000
  YS02001770              0.01      7.76      0  02:48       0.000     0.000
  YS02001774              0.01      0.65      0  07:50       0.000     0.000
  YS02001779              2.75    415.55      0  03:25       1.381     0.000
  YS02001882              0.01      7.62      0  02:49       0.000     0.000
  YS02001890              0.23    106.74      0  03:01       0.038     0.000
  YS02001907              0.63    602.16      0  03:02       0.723     0.000
  YS02001918              0.01     92.69      0  02:52       0.000     0.000
  YS02001619              0.01     27.39      0  02:45       0.000     0.000
  YS02001629              0.01     35.56      0  02:44       0.000     0.000
  YS02001644              4.65   1159.31      0  03:22       7.182     0.000
  YS02001652              0.01     21.36      0  02:59       0.000     0.000
  YS02001655              0.01    141.22      0  02:40       0.000     0.000
  YS02001658              0.01    230.22      0  02:45       0.000     0.000
  YS02001661              0.01    166.98      0  02:59       0.000     0.000
  YS02001622              0.01     24.08      0  02:44       0.000     0.000
  YS02001649              0.10     46.61      0  02:59       0.005     0.000
  YS02001757              0.01     16.75      0  02:47       0.000     0.000
  YS02001625              1.13    316.77      0  03:01       0.549     0.000
  YS02001784              0.01     20.29      0  02:48       0.000     0.000
  YS02001786              0.01     75.70      0  02:48       0.000     0.000
  YS02001788              0.01    111.80      0  02:48       0.000     0.000
  YS02001790              0.01    148.68      0  02:48       0.000     0.000
  YS02001793              0.01    493.31      0  05:14       0.000     0.000
  JK-storage              1.81    665.97      0  03:10       2.366     0.000
  XR-storage              4.78    725.72      0  03:01       3.916     0.000
  
  
  **********************
  Storage Volume Summary
  **********************
  
  --------------------------------------------------------------------------------------------------
                         Average     Avg  Evap Exfil       Maximum     Max    Time of Max    Maximum
                          Volume    Pcnt  Pcnt  Pcnt        Volume    Pcnt     Occurrence    Outflow
  Storage Unit           1000 m3    Full  Loss  Loss       1000 m3    Full    days hr:min        LPS
  --------------------------------------------------------------------------------------------------
  JK-storage               0.158      54     0     0         0.291     100       0  02:48     897.91
  CC-storage               2.963      19     0     0         3.851      25       0  03:23     400.00
  XR-storage               0.874      94     0     0         0.926     100       0  02:39     379.98
  
  
  ***********************
  Outfall Loading Summary
  ***********************
  
  -----------------------------------------------------------
                         Flow       Avg       Max       Total
                         Freq      Flow      Flow      Volume
  Outfall Node           Pcnt       LPS       LPS    10^6 ltr
  -----------------------------------------------------------
  WSC                  100.00    614.53   1073.02      14.894
  3                     93.97    262.60    548.01       5.142
  4                     50.29     53.67    214.11       0.597
  5                      0.00      0.00      0.00       0.000
  -----------------------------------------------------------
  System                61.06    930.80   1447.74      20.633
  
  
  ********************
  Link Flow Summary
  ********************
  
  -----------------------------------------------------------------------------
                                 Maximum  Time of Max   Maximum    Max/    Max/
                                  |Flow|   Occurrence   |Veloc|    Full    Full
  Link                 Type          LPS  days hr:min     m/sec    Flow   Depth
  -----------------------------------------------------------------------------
  WS02003066WSF200     CONDUIT    779.73     0  03:05      3.02    0.13    0.28
  WS02006287WS02006284 CONDUIT    610.96     0  03:02      2.31    0.28    0.37
  WS02006284WS02006280 CONDUIT    611.95     0  03:02      2.55    0.26    0.35
  WS02006280WS02006229 CONDUIT    612.07     0  03:02      4.12    0.13    0.24
  WS02006229WS02006228 CONDUIT    765.73     0  03:02      1.52    2.54    1.00
  WS02006256WS02006235 CONDUIT    149.96     0  00:15      2.14    1.59    1.00
  WS02006253WS02006251 CONDUIT    133.06     0  03:02      0.47    0.40    0.99
  WS02006252WS02006251 CONDUIT    400.67     0  04:41      3.19    1.47    1.00
  WS02006251WS02006249 CONDUIT    466.25     0  02:40      1.22    1.34    0.97
  WS02006249WS02006248 CONDUIT    358.64     0  02:09      1.18    1.96    0.91
  WS02006248WS02006247 CONDUIT    352.96     0  02:09      1.15    0.77    0.96
  WS02006247WS02006245 CONDUIT    345.84     0  02:09      1.11    2.74    1.00
  WS02006245WS02006243 CONDUIT    338.81     0  02:10      1.14    1.00    1.00
  WS02006243WS02006242 CONDUIT    336.49     0  04:41      0.98    0.72    1.00
  WS02006242WS02006240 CONDUIT    333.47     0  05:20      0.91    1.32    1.00
  WS02006240WS02006239 CONDUIT    333.08     0  05:20      0.95    1.05    1.00
  WS02006239WS02006238 CONDUIT    332.16     0  05:20      0.90    1.06    1.00
  WS02006238WS02006235 CONDUIT    331.27     0  05:20      0.89    0.74    1.00
  WS02006235WS02006234 CONDUIT    392.71     0  06:21      1.04    4.14    1.00
  WS02006234WS02006232 CONDUIT    392.23     0  05:00      1.02    0.79    1.00
  WS02006232WS02006231 CONDUIT    392.24     0  05:00      1.07    0.82    1.00
  WS02006231WS02006230 CONDUIT    392.13     0  05:00      1.34    5.95    1.00
  WS02006230WS02006229 CONDUIT    402.28     0  05:00      1.05    8.95    1.00
  WS02006228WS02006109 CONDUIT    765.77     0  03:02      1.52    3.35    1.00
  WS02006116WS02004401 CONDUIT    782.37     0  03:03      1.00    1.08    1.00
  WS02006115WS02006116 CONDUIT    782.16     0  03:03      1.00    1.00    1.00
  WS02006113WS02006111 CONDUIT    764.17     0  03:03      2.57    0.92    0.72
  WS02006112WS02006115 CONDUIT    781.97     0  03:03      1.00    0.46    1.00
  WS02006111WS02006112 CONDUIT    764.13     0  03:03      1.72    0.36    0.85
  WS02006110WS02006113 CONDUIT    767.01     0  03:02      1.66    0.70    0.87
  WS02006109WS02006110 CONDUIT    766.92     0  03:02      1.53    1.47    1.00
  WS02004411WS02004412 CONDUIT    779.49     0  03:04      1.12    1.11    0.83
  WS02004401WS02004402 CONDUIT    782.42     0  03:03      1.00    0.94    1.00
  WS02004413WS02003067 CONDUIT    779.37     0  03:05      1.37    0.33    0.68
  WS02004412WS02004413 CONDUIT    779.30     0  03:05      1.05    0.52    0.89
  WS02004410WS02004411 CONDUIT    780.10     0  03:04      1.12    1.07    0.83
  WS02004409WS02004410 CONDUIT    781.13     0  03:04      1.12    1.01    0.83
  WS02004407WS02004409 CONDUIT    782.63     0  03:04      1.60    0.28    0.60
  WS02004406WS02004407 CONDUIT    782.79     0  03:03      1.38    0.35    0.68
  WS02004405WS02004406 CONDUIT    782.78     0  03:03      1.00    1.54    1.00
  WS02004404WS02004405 CONDUIT    782.72     0  03:03      1.00    7.67    1.00
  WS02004403WS02004404 CONDUIT    782.54     0  03:03      1.00    0.57    1.00
  WS02004402WS02004403 CONDUIT    782.48     0  03:03      1.00    1.12    1.00
  WS02004139WS02001211 CONDUIT    367.80     0  02:00      0.58    0.46    0.60
  WS02004138WS02004139 CONDUIT    378.86     0  00:40      2.39    0.08    0.44
  WS02003067WS02003066 CONDUIT    779.72     0  03:05      1.49    0.25    0.47
  WS02001213WS02003059 CONDUIT    373.11     0  03:13      0.66    0.62    0.81
  WS02001212WS02001213 CONDUIT    369.92     0  03:13      1.29    0.57    0.50
  WS02001211WS02001212 CONDUIT    367.97     0  03:11      0.76    0.28    0.66
  WS02003072WS02003073 CONDUIT   1071.65     0  03:13      1.81    2.31    0.52
  WS02003069WS02003072 CONDUIT   1071.91     0  03:13      1.69    0.52    0.55
  WS02003060WS02003069 CONDUIT   1072.24     0  03:12      1.93    0.42    0.49
  WS02003059WS02003060 CONDUIT    378.26     0  03:14      0.90    0.25    0.70
  HS02004901HS02004770 CONDUIT     32.24     0  03:01      0.09    0.12    0.50
  HS02004876HS02004881 CONDUIT    119.33     0  03:01      1.17    1.27    0.15
  HS02004870HS02004876 CONDUIT     96.13     0  03:01      0.79    0.06    0.17
  HS02004842HS02004848 CONDUIT     15.11     0  03:01      0.07    0.01    0.33
  HS02004837HS02004842 CONDUIT     16.10     0  03:03      0.42    0.01    0.34
  HS02004830HS02004837 CONDUIT     61.24     0  03:01      0.66    0.06    0.13
  HS02004824HS02004830 CONDUIT     60.79     0  03:01      0.63    0.08    0.15
  HS02004817HS02004824 CONDUIT    117.39     0  03:02      0.30    0.05    0.56
  HS02004770HS02004777 CONDUIT    159.99     0  03:01      0.45    0.29    0.51
  HS02004799HS02004480 CONDUIT    387.38     0  03:01      1.00    0.49    0.56
  HS02004792HS02004799 CONDUIT    353.06     0  03:01      1.12    0.22    0.45
  HS02004788HS02004792 CONDUIT    202.14     0  03:02      1.22    0.13    0.24
  HS02004785HS02004788 CONDUIT    156.68     0  03:02      0.85    1.18    0.26
  HS02004777HS02004785 CONDUIT    157.13     0  03:01      0.53    0.19    0.42
  HS02004480HS02004478 CONDUIT    456.75     0  03:01      1.47    1.92    0.44
  HS02004479HS02004480 CONDUIT     74.07     0  03:02      0.22    0.07    0.53
  HS02004862HS02004870 CONDUIT     73.11     0  03:01      0.77    0.08    0.14
  HS02004848HS02004852 CONDUIT     35.11     0  03:01      0.52    0.04    0.10
  HS02004856HS02004862 CONDUIT     51.23     0  03:01      0.58    0.05    0.13
  HS02004852HS02004856 CONDUIT     35.02     0  03:02      0.32    0.04    0.16
  HS02004802HS02004478 CONDUIT    160.69     0  03:04      0.54    0.14    0.45
  HS02004478WS02006287 CONDUIT    609.83     0  03:02      2.03    0.17    0.33
  HS02004817HS02004807 CONDUIT    120.82     0  03:04      0.24    0.07    0.73
  HS02004807HS02004802 CONDUIT    156.92     0  03:03      0.45    0.30    0.51
  YS02001759YS02001757 CONDUIT    779.71     0  02:56      0.99    0.55    1.00
  YS02001762YS02001759 CONDUIT    387.54     0  02:55      0.49    0.45    1.00
  YS02001765YS02001762 CONDUIT    387.61     0  02:55      0.49    0.36    1.00
  YS02001770YS02001767 CONDUIT    386.97     0  02:55      0.49    1.53    1.00
  YS02001774YS02001770 CONDUIT    415.50     0  03:25      0.53    0.27    1.00
  YS02001779YS02001774 CONDUIT    415.66     0  03:25      0.53    0.21    1.00
  YS02001649YS02001757 CONDUIT   1022.39     0  02:51      1.30    0.62    1.00
  YS02001767YS02001765 CONDUIT    387.70     0  02:55      0.49    0.49    1.00
  YS02006561YS02001783 CONDUIT    969.09     0  03:00      2.16    0.50    1.00
  YS02001783YS02001784 CONDUIT    969.16     0  03:00      1.93    1.34    1.00
  YS02001784YS02001785 CONDUIT    970.21     0  03:01      1.93    2.26    1.00
  YS02001788YS02001790 CONDUIT    970.27     0  03:01      2.41    0.72    1.00
  YS02001790YS02001791 CONDUIT    970.44     0  03:01      2.94    1.06    1.00
  YS02001791YS02001793 CONDUIT    970.64     0  03:00      5.82    0.42    1.00
  YS02001910YS02001907 CONDUIT    591.06     0  02:54      0.75    0.33    1.00
  YS02001786YS02001788 CONDUIT    970.19     0  03:00      2.30    1.87    1.00
  YS02001915YS02001910 CONDUIT    591.09     0  02:54      0.75    0.29    1.00
  YS02001918YS02001915 CONDUIT    321.40     0  02:54      0.44    0.18    1.00
  YS02001923YS02001920 CONDUIT    317.96     0  02:54      0.72    0.14    1.00
  YS02001926YS02001923 CONDUIT    290.88     0  02:54      0.82    0.42    1.00
  YS02001929YS02001926 CONDUIT    226.30     0  02:54      0.87    0.11    0.90
  YS02001920YS02001918 CONDUIT    320.84     0  02:54      0.70    0.31    1.00
  YS02001629YS02163301 CONDUIT    227.76     0  02:50      0.29    0.28    1.00
  YS02001619YS02001622 CONDUIT    338.12     0  03:01      0.60    0.50    1.00
  YS02001622YS02001625 CONDUIT    338.17     0  03:01      0.43    0.18    1.00
  YS02001625YS02001629 CONDUIT    227.99     0  02:50      0.29    0.11    1.00
  YS02163301YS02001633 CONDUIT    227.91     0  02:50      0.29    0.21    1.00
  YS02163601YS02164001 CONDUIT    481.81     0  02:51      0.61    0.43    1.00
  YS02164001YS02001641 CONDUIT    481.76     0  02:51      0.61    0.66    1.00
  YS02001641YS02001644 CONDUIT    481.30     0  02:50      0.61    1.56    1.00
  YS02001647YS02001649 CONDUIT    733.25     0  02:51      0.93    0.39    1.00
  YS02006553YS02006556 CONDUIT    671.88     0  03:31      0.86    0.57    1.00
  YS02006556YS02006558 CONDUIT    672.27     0  03:31      0.86    0.53    1.00
  YSB6556YSB1171       CONDUIT     41.33     0  03:02      0.13    0.04    0.80
  YS02001907YS02006553 CONDUIT    671.88     0  03:31      0.75    0.79    1.00
  YS02006558YS02006561 CONDUIT    969.07     0  03:00      3.50    2.14    1.00
  YS02001633YS02163601 CONDUIT    481.70     0  02:50      0.61    0.51    1.00
  YS02001644YS02001647 CONDUIT    733.08     0  02:51      0.93    0.43    1.00
  YS02001745YS02001748 CONDUIT    641.79     0  02:46      1.48    0.25    0.95
  YS02001748YS02001751 CONDUIT    398.76     0  03:01      1.03    0.20    1.00
  YS02001751YS02001754 CONDUIT    398.83     0  03:01      0.84    0.19    1.00
  YS02001754YS02001757 CONDUIT    398.95     0  03:01      0.51    0.16    1.00
  YS02001882YS02001884 CONDUIT     25.04     0  02:49      0.08    0.03    1.00
  YS02001884YS02001887 CONDUIT     29.14     0  04:11      0.05    0.04    1.00
  YS02001890YS02001895 CONDUIT    516.93     0  03:04      0.66    0.24    1.00
  YS02001895YS02001898 CONDUIT    517.02     0  03:04      0.66    0.90    1.00
  YS02001898YS02001901 CONDUIT    517.08     0  03:04      0.66    0.33    1.00
  YS02001901YS02001904 CONDUIT    516.90     0  03:04      0.66    0.80    1.00
  YS02001904YS02001907 CONDUIT    516.90     0  03:07      0.66    0.18    1.00
  YS02001887YS02001890 CONDUIT    623.07     0  03:01      0.79    1.07    1.00
  YS02001652YS02001649 CONDUIT    476.53     0  03:02      0.61    0.24    1.00
  YS02001655YS02001652 CONDUIT    476.23     0  03:02      0.89    0.23    1.00
  YS02001658YS02001655 CONDUIT    476.03     0  03:02      1.18    0.20    1.00
  YS02001661YS02001658 CONDUIT    642.83     0  02:45      1.56    0.25    1.00
  YS02001664YS02001661 CONDUIT    747.26     0  02:59      1.61    0.23    0.73
  YSB1154YSB6556       CONDUIT     41.77     0  03:01      0.19    0.08    0.69
  YSB1174YSB1171       CONDUIT     34.49     0  03:01      0.10    0.05    0.81
  YSB1171HS02004479    CONDUIT     72.19     0  03:02      0.54    0.05    0.65
  HS02004881HS02006253 CONDUIT    131.62     0  03:01      2.05    0.03    0.30
  YS02001793JiankangQianchi CONDUIT   1147.42     0  05:13     15.84    0.09    1.00
  YS02001757CaochengTiaoxuchi CONDUIT   1985.52     0  02:52      2.83    0.87    1.00
  WSF200WS02003060     CONDUIT    778.60     0  03:05      2.10    0.17    0.38
  1                    CONDUIT   1073.02     0  03:14      3.39    0.37    0.42
  2                    CONDUIT    214.11     0  02:40      5.94    0.51    0.51
  3                    CONDUIT    548.01     0  03:00      9.94    0.87    0.73
  4                    CONDUIT      0.00     0  00:00      0.00    0.00    0.00
  CC-Pump-1            PUMP       200.00     0  02:06              1.00
  CC-Pump-2            PUMP       200.00     0  02:30              1.00
  JK-Pump-1            PUMP       300.00     0  02:30              1.00
  JK-Pump-2            PUMP       300.00     0  02:20              1.00
  XR-Pump-1            PUMP        95.00     0  00:20              1.00
  XR-Pump-2            PUMP        95.00     0  00:00              1.00
  XR-Pump-3            PUMP        95.00     0  00:40              1.00
  XR-Pump-4            PUMP        95.00     0  00:40              1.00
  
  
  ***************************
  Flow Classification Summary
  ***************************
  
  -------------------------------------------------------------------------------------
                      Adjusted    ---------- Fraction of Time in Flow Class ---------- 
                       /Actual         Up    Down  Sub   Sup   Up    Down  Norm  Inlet 
  Conduit               Length    Dry  Dry   Dry   Crit  Crit  Crit  Crit  Ltd   Ctrl  
  -------------------------------------------------------------------------------------
  WS02003066WSF200        1.00   0.04  0.01  0.00  0.00  0.95  0.00  0.00  0.64  0.00
  WS02006287WS02006284    1.00   0.03  0.01  0.00  0.56  0.39  0.00  0.00  0.67  0.00
  WS02006284WS02006280    1.00   0.04  0.00  0.00  0.00  0.00  0.00  0.96  0.00  0.00
  WS02006280WS02006229    1.00   0.04  0.00  0.00  0.00  0.00  0.00  0.96  0.00  0.00
  WS02006229WS02006228    1.00   0.00  0.00  0.00  1.00  0.00  0.00  0.00  0.00  0.00
  WS02006256WS02006235    1.00   0.00  0.00  0.00  1.00  0.00  0.00  0.00  0.00  0.00
  WS02006253WS02006251    1.00   0.02  0.01  0.00  0.96  0.00  0.00  0.00  0.00  0.00
  WS02006252WS02006251    1.00   0.07  0.00  0.00  0.00  0.00  0.93  0.00  0.00  0.00
  WS02006251WS02006249    1.00   0.00  0.00  0.00  1.00  0.00  0.00  0.00  0.28  0.00
  WS02006249WS02006248    1.00   0.00  0.00  0.00  0.88  0.00  0.12  0.00  0.00  0.00
  WS02006248WS02006247    1.00   0.00  0.00  0.00  0.98  0.00  0.00  0.02  0.17  0.00
  WS02006247WS02006245    1.00   0.00  0.00  0.00  0.98  0.00  0.00  0.01  0.00  0.00
  WS02006245WS02006243    1.00   0.01  0.00  0.00  0.96  0.00  0.00  0.03  0.01  0.00
  WS02006243WS02006242    1.00   0.01  0.00  0.00  0.99  0.00  0.00  0.00  0.18  0.00
  WS02006242WS02006240    1.00   0.00  0.00  0.00  1.00  0.00  0.00  0.00  0.00  0.00
  WS02006240WS02006239    1.00   0.00  0.00  0.00  0.97  0.00  0.00  0.03  0.01  0.00
  WS02006239WS02006238    1.00   0.00  0.00  0.00  1.00  0.00  0.00  0.00  0.01  0.00
  WS02006238WS02006235    1.00   0.00  0.00  0.00  1.00  0.00  0.00  0.00  0.00  0.00
  WS02006235WS02006234    1.00   0.00  0.00  0.00  0.97  0.00  0.03  0.00  0.00  0.00
  WS02006234WS02006232    1.00   0.00  0.00  0.00  1.00  0.00  0.00  0.00  0.08  0.00
  WS02006232WS02006231    1.00   0.00  0.00  0.00  0.99  0.00  0.00  0.00  0.00  0.00
  WS02006231WS02006230    1.00   0.00  0.00  0.00  0.72  0.00  0.28  0.00  0.00  0.00
  WS02006230WS02006229    1.00   0.00  0.00  0.00  0.99  0.00  0.00  0.01  0.01  0.00
  WS02006228WS02006109    1.00   0.00  0.00  0.00  1.00  0.00  0.00  0.00  0.00  0.00
  WS02006116WS02004401    1.00   0.02  0.00  0.00  0.98  0.00  0.00  0.00  0.00  0.00
  WS02006115WS02006116    1.00   0.02  0.00  0.00  0.97  0.00  0.00  0.01  0.00  0.00
  WS02006113WS02006111    1.00   0.01  0.00  0.00  0.02  0.97  0.00  0.00  0.10  0.00
  WS02006112WS02006115    1.00   0.01  0.01  0.00  0.97  0.00  0.00  0.00  0.00  0.00
  WS02006111WS02006112    1.00   0.01  0.00  0.00  0.98  0.00  0.00  0.00  0.87  0.00
  WS02006110WS02006113    1.00   0.00  0.01  0.00  0.99  0.00  0.00  0.00  0.00  0.00
  WS02006109WS02006110    1.00   0.00  0.00  0.00  1.00  0.00  0.00  0.00  0.00  0.00
  WS02004411WS02004412    1.00   0.03  0.00  0.00  0.97  0.00  0.00  0.00  0.00  0.00
  WS02004401WS02004402    1.00   0.02  0.00  0.00  0.98  0.00  0.00  0.00  0.00  0.00
  WS02004413WS02003067    1.00   0.03  0.01  0.00  0.00  0.00  0.96  0.00  0.00  0.00
  WS02004412WS02004413    1.00   0.03  0.00  0.00  0.97  0.00  0.00  0.00  0.01  0.00
  WS02004410WS02004411    1.00   0.03  0.00  0.00  0.97  0.00  0.00  0.00  0.01  0.00
  WS02004409WS02004410    1.00   0.03  0.00  0.00  0.97  0.00  0.00  0.00  0.03  0.00
  WS02004407WS02004409    1.00   0.03  0.00  0.00  0.97  0.00  0.00  0.00  0.91  0.00
  WS02004406WS02004407    1.00   0.00  0.03  0.00  0.97  0.00  0.00  0.00  0.00  0.00
  WS02004405WS02004406    1.00   0.00  0.00  0.00  1.00  0.00  0.00  0.00  0.03  0.00
  WS02004404WS02004405    1.00   0.00  0.00  0.00  1.00  0.00  0.00  0.00  0.00  0.00
  WS02004403WS02004404    1.00   0.00  0.03  0.00  0.97  0.00  0.00  0.00  0.00  0.00
  WS02004402WS02004403    1.00   0.03  0.00  0.00  0.97  0.00  0.00  0.00  0.00  0.00
  WS02004139WS02001211    1.00   0.00  0.00  0.00  1.00  0.00  0.00  0.00  0.00  0.00
  WS02004138WS02004139    1.00   0.00  0.00  0.00  1.00  0.00  0.00  0.00  1.00  0.00
  WS02003067WS02003066    1.00   0.04  0.00  0.00  0.96  0.00  0.00  0.00  0.00  0.00
  WS02001213WS02003059    1.00   0.00  0.00  0.00  1.00  0.00  0.00  0.00  0.00  0.00
  WS02001212WS02001213    1.00   0.00  0.00  0.00  0.85  0.00  0.15  0.00  0.00  0.00
  WS02001211WS02001212    1.00   0.00  0.00  0.00  1.00  0.00  0.00  0.00  0.00  0.00
  WS02003072WS02003073    1.00   0.00  0.00  0.00  0.00  0.00  0.00  1.00  0.00  0.00
  WS02003069WS02003072    1.00   0.00  0.00  0.00  1.00  0.00  0.00  0.00  0.24  0.00
  WS02003060WS02003069    1.00   0.00  0.00  0.00  0.98  0.02  0.00  0.00  0.12  0.00
  WS02003059WS02003060    1.00   0.00  0.00  0.00  1.00  0.00  0.00  0.00  0.02  0.00
  HS02004901HS02004770    1.00   0.04  0.00  0.00  0.96  0.00  0.00  0.00  0.01  0.00
  HS02004876HS02004881    1.00   0.00  0.00  0.00  0.88  0.11  0.00  0.00  0.00  0.00
  HS02004870HS02004876    1.00   0.00  0.00  0.00  1.00  0.00  0.00  0.00  0.95  0.00
  HS02004842HS02004848    1.00   0.00  0.04  0.00  0.96  0.00  0.00  0.00  0.58  0.00
  HS02004837HS02004842    1.00   0.00  0.00  0.00  1.00  0.00  0.00  0.00  0.11  0.00
  HS02004830HS02004837    1.00   0.00  0.00  0.00  1.00  0.00  0.00  0.00  0.99  0.00
  HS02004824HS02004830    1.00   0.00  0.00  0.00  1.00  0.00  0.00  0.00  0.01  0.00
  HS02004817HS02004824    1.00   0.00  0.00  0.00  1.00  0.00  0.00  0.00  0.98  0.00
  HS02004770HS02004777    1.00   0.00  0.04  0.00  0.96  0.00  0.00  0.00  0.04  0.00
  HS02004799HS02004480    1.00   0.00  0.01  0.00  0.95  0.00  0.04  0.00  0.00  0.00
  HS02004792HS02004799    1.00   0.00  0.00  0.00  1.00  0.00  0.00  0.00  0.98  0.00
  HS02004788HS02004792    1.00   0.00  0.00  0.00  1.00  0.00  0.00  0.00  0.98  0.00
  HS02004785HS02004788    1.00   0.00  0.00  0.00  1.00  0.00  0.00  0.00  0.00  0.00
  HS02004777HS02004785    1.00   0.00  0.00  0.00  1.00  0.00  0.00  0.00  0.15  0.00
  HS02004480HS02004478    1.00   0.04  0.00  0.00  0.65  0.00  0.00  0.31  0.00  0.00
  HS02004479HS02004480    1.00   0.01  0.00  0.00  0.99  0.00  0.00  0.00  0.13  0.00
  HS02004862HS02004870    1.00   0.00  0.00  0.00  1.00  0.00  0.00  0.00  0.06  0.00
  HS02004848HS02004852    1.00   0.04  0.00  0.00  0.96  0.00  0.00  0.00  0.64  0.00
  HS02004856HS02004862    1.00   0.00  0.05  0.00  0.95  0.00  0.00  0.00  0.79  0.00
  HS02004852HS02004856    1.00   0.04  0.00  0.00  0.96  0.00  0.00  0.00  0.81  0.00
  HS02004802HS02004478    1.00   0.04  0.00  0.00  0.96  0.00  0.00  0.00  0.03  0.00
  HS02004478WS02006287    1.00   0.05  0.00  0.00  0.71  0.24  0.00  0.00  0.66  0.00
  HS02004817HS02004807    1.00   0.00  0.04  0.00  0.96  0.00  0.00  0.00  0.01  0.00
  HS02004807HS02004802    1.00   0.04  0.00  0.00  0.96  0.00  0.00  0.00  0.00  0.00
  YS02001759YS02001757    1.00   0.00  0.00  0.00  1.00  0.00  0.00  0.00  0.17  0.00
  YS02001762YS02001759    1.00   0.00  0.00  0.00  1.00  0.00  0.00  0.00  0.04  0.00
  YS02001765YS02001762    1.00   0.00  0.00  0.00  1.00  0.00  0.00  0.00  0.17  0.00
  YS02001770YS02001767    1.00   0.00  0.00  0.00  1.00  0.00  0.00  0.00  0.00  0.00
  YS02001774YS02001770    1.00   0.00  0.04  0.00  0.96  0.00  0.00  0.00  0.04  0.00
  YS02001779YS02001774    1.00   0.00  0.00  0.00  1.00  0.00  0.00  0.00  0.22  0.00
  YS02001649YS02001757    1.00   0.00  0.00  0.00  1.00  0.00  0.00  0.00  0.17  0.00
  YS02001767YS02001765    1.00   0.00  0.00  0.00  1.00  0.00  0.00  0.00  0.01  0.00
  YS02006561YS02001783    1.00   0.05  0.00  0.00  0.40  0.54  0.00  0.00  0.50  0.00
  YS02001783YS02001784    1.00   0.00  0.05  0.00  0.95  0.00  0.00  0.00  0.01  0.00
  YS02001784YS02001785    1.00   0.00  0.00  0.00  1.00  0.00  0.00  0.00  0.21  0.00
  YS02001788YS02001790    1.00   0.00  0.00  0.00  0.48  0.52  0.00  0.00  0.47  0.00
  YS02001790YS02001791    1.00   0.00  0.00  0.00  0.43  0.57  0.00  0.00  0.40  0.00
  YS02001791YS02001793    1.00   0.00  0.00  0.00  0.47  0.53  0.00  0.00  0.03  0.00
  YS02001910YS02001907    1.00   0.00  0.00  0.00  1.00  0.00  0.00  0.00  0.13  0.00
  YS02001786YS02001788    1.00   0.00  0.00  0.00  0.45  0.55  0.00  0.00  0.00  0.00
  YS02001915YS02001910    1.00   0.00  0.00  0.00  0.99  0.01  0.00  0.00  0.19  0.00
  YS02001918YS02001915    1.00   0.00  0.00  0.00  1.00  0.00  0.00  0.00  0.56  0.00
  YS02001923YS02001920    1.00   0.00  0.00  0.00  1.00  0.00  0.00  0.00  0.83  0.00
  YS02001926YS02001923    1.00   0.00  0.03  0.00  0.18  0.00  0.79  0.00  0.00  0.00
  YS02001929YS02001926    1.00   0.00  0.04  0.00  0.96  0.00  0.00  0.00  0.75  0.00
  YS02001920YS02001918    1.00   0.00  0.00  0.00  1.00  0.00  0.00  0.00  0.00  0.00
  YS02001629YS02163301    1.00   0.05  0.00  0.00  0.95  0.00  0.00  0.00  0.00  0.00
  YS02001619YS02001622    1.00   0.04  0.00  0.00  0.96  0.00  0.00  0.00  0.00  0.00
  YS02001622YS02001625    1.00   0.04  0.00  0.00  0.96  0.00  0.00  0.00  0.08  0.00
  YS02001625YS02001629    1.00   0.04  0.02  0.00  0.93  0.00  0.02  0.00  0.00  0.00
  YS02163301YS02001633    1.00   0.00  0.05  0.00  0.95  0.00  0.00  0.00  0.00  0.00
  YS02163601YS02164001    1.00   0.00  0.03  0.00  0.97  0.00  0.00  0.00  0.00  0.00
  YS02164001YS02001641    1.00   0.00  0.03  0.00  0.97  0.00  0.00  0.00  0.06  0.00
  YS02001641YS02001644    1.00   0.00  0.00  0.00  1.00  0.00  0.00  0.00  0.00  0.00
  YS02001647YS02001649    1.00   0.00  0.05  0.00  0.95  0.00  0.00  0.00  0.01  0.00
  YS02006553YS02006556    1.00   0.00  0.00  0.00  1.00  0.00  0.00  0.00  0.03  0.00
  YS02006556YS02006558    1.00   0.00  0.00  0.00  1.00  0.00  0.00  0.00  0.00  0.00
  YSB6556YSB1171          1.00   0.01  0.03  0.00  0.96  0.00  0.00  0.00  0.00  0.00
  YS02001907YS02006553    1.00   0.00  0.00  0.00  1.00  0.00  0.00  0.00  0.00  0.00
  YS02006558YS02006561    1.00   0.05  0.00  0.00  0.21  0.73  0.00  0.00  0.45  0.00
  YS02001633YS02163601    1.00   0.00  0.00  0.00  1.00  0.00  0.00  0.00  0.16  0.00
  YS02001644YS02001647    1.00   0.00  0.05  0.00  0.95  0.00  0.00  0.00  0.00  0.00
  YS02001745YS02001748    1.00   0.00  0.00  0.00  0.88  0.01  0.00  0.10  0.05  0.00
  YS02001748YS02001751    1.00   0.00  0.00  0.00  0.97  0.03  0.00  0.00  0.15  0.00
  YS02001751YS02001754    1.00   0.00  0.00  0.00  0.94  0.00  0.00  0.06  0.02  0.00
  YS02001754YS02001757    1.00   0.00  0.00  0.00  1.00  0.00  0.00  0.00  0.21  0.00
  YS02001882YS02001884    1.00   0.04  0.00  0.00  0.95  0.00  0.00  0.00  0.00  0.00
  YS02001884YS02001887    1.00   0.03  0.01  0.00  0.96  0.00  0.00  0.00  0.00  0.00
  YS02001890YS02001895    1.00   0.00  0.05  0.00  0.95  0.00  0.00  0.00  0.00  0.00
  YS02001895YS02001898    1.00   0.05  0.00  0.00  0.94  0.00  0.01  0.00  0.00  0.00
  YS02001898YS02001901    1.00   0.05  0.00  0.00  0.95  0.00  0.00  0.00  0.03  0.00
  YS02001901YS02001904    1.00   0.05  0.00  0.00  0.95  0.00  0.00  0.00  0.00  0.00
  YS02001904YS02001907    1.00   0.00  0.05  0.00  0.95  0.00  0.00  0.00  0.00  0.00
  YS02001887YS02001890    1.00   0.00  0.00  0.00  0.99  0.00  0.00  0.00  0.00  0.00
  YS02001652YS02001649    1.00   0.00  0.00  0.00  1.00  0.00  0.00  0.00  0.19  0.00
  YS02001655YS02001652    1.00   0.00  0.00  0.00  0.94  0.00  0.00  0.06  0.03  0.00
  YS02001658YS02001655    1.00   0.00  0.04  0.00  0.93  0.03  0.00  0.00  0.13  0.00
  YS02001661YS02001658    1.00   0.04  0.00  0.00  0.88  0.08  0.00  0.00  0.08  0.00
  YS02001664YS02001661    1.00   0.04  0.00  0.00  0.86  0.10  0.00  0.00  0.23  0.00
  YSB1154YSB6556          1.00   0.04  0.00  0.00  0.96  0.00  0.00  0.00  0.02  0.00
  YSB1174YSB1171          1.00   0.02  0.01  0.00  0.97  0.00  0.00  0.00  0.00  0.00
  YSB1171HS02004479       1.00   0.01  0.00  0.00  0.97  0.00  0.00  0.01  0.11  0.00
  HS02004881HS02006253    1.00   0.02  0.00  0.00  0.72  0.05  0.00  0.20  0.60  0.00
  YS02001793JiankangQianchi    1.00   0.00  0.00  0.00  0.66  0.34  0.00  0.00  0.18  0.00
  YS02001757CaochengTiaoxuchi    1.00   0.00  0.07  0.00  0.89  0.04  0.00  0.00  0.00  0.00
  WSF200WS02003060        1.00   0.00  0.04  0.00  0.49  0.47  0.00  0.00  0.26  0.00
  1                       1.00   0.00  0.00  0.00  0.00  1.00  0.00  0.00  0.32  0.00
  2                       1.00   0.49  0.00  0.00  0.00  0.51  0.00  0.00  0.11  0.00
  3                       1.00   0.06  0.00  0.00  0.00  0.94  0.00  0.00  0.00  0.00
  4                       1.00   1.00  0.00  0.00  0.00  0.00  0.00  0.00  0.00  0.00
  
  
  *************************
  Conduit Surcharge Summary
  *************************
  
  ----------------------------------------------------------------------------
                                                           Hours        Hours 
                         --------- Hours Full --------   Above Full   Capacity
  Conduit                Both Ends  Upstream  Dnstream   Normal Flow   Limited
  ----------------------------------------------------------------------------
  WS02006229WS02006228        2.77      3.08      2.77      4.58         2.77
  WS02006256WS02006235        6.06      6.07      6.89      3.11         0.01
  WS02006253WS02006251        0.01      0.01      0.06      0.01         0.01
  WS02006252WS02006251        1.30      1.30      2.69      2.34         0.01
  WS02006251WS02006249        0.01      0.01      0.01      1.46         0.01
  WS02006249WS02006248        0.01      0.01      0.01      4.05         0.01
  WS02006248WS02006247        0.01      0.01      0.04      0.01         0.01
  WS02006247WS02006245        0.01      0.09      0.01      4.63         0.01
  WS02006245WS02006243        0.07      0.07      0.27      0.01         0.01
  WS02006243WS02006242        0.41      0.41      1.97      0.01         0.01
  WS02006242WS02006240        1.02      1.02      2.43      2.43         0.01
  WS02006240WS02006239        1.19      1.19      1.33      0.08         0.01
  WS02006239WS02006238        2.33      2.33      2.50      0.23         0.14
  WS02006238WS02006235        2.36      2.36      2.91      0.01         0.01
  WS02006235WS02006234        1.05      1.05      2.02      6.10         0.01
  WS02006234WS02006232        1.32      1.32      3.15      0.01         0.01
  WS02006232WS02006231        0.89      0.89      3.15      0.01         0.01
  WS02006231WS02006230        0.69      0.69      1.00      6.10         0.01
  WS02006230WS02006229        4.05      4.36      4.05      6.21         4.05
  WS02006228WS02006109        2.91      3.54      2.91      5.33         2.91
  WS02006116WS02004401        0.27      0.27      0.29      0.19         0.19
  WS02006115WS02006116        0.10      0.10      0.11      0.02         0.03
  WS02006112WS02006115        0.08      0.08      1.17      0.01         0.01
  WS02006111WS02006112        0.01      0.01      4.61      0.01         0.01
  WS02006110WS02006113        0.01      0.01      3.31      0.01         0.01
  WS02006109WS02006110        1.08      1.08      3.55      1.09         0.01
  WS02004411WS02004412        0.01      0.01      0.01      0.25         0.01
  WS02004401WS02004402        0.29      0.29      0.35      0.01         0.01
  WS02004410WS02004411        0.01      0.01      0.01      0.17         0.01
  WS02004409WS02004410        0.01      0.01      0.01      0.04         0.01
  WS02004406WS02004407        0.01      0.01      0.60      0.01         0.01
  WS02004405WS02004406        0.60      0.66      0.60      1.11         0.60
  WS02004404WS02004405        0.66      0.74      0.66      5.90         0.66
  WS02004403WS02004404        0.37      0.37      0.74      0.01         0.01
  WS02004402WS02004403        0.35      0.35      0.37      0.27         0.26
  WS02003072WS02003073        0.01      0.01      0.01      4.96         0.01
  HS02004876HS02004881        0.01      0.01      0.01      0.17         0.01
  HS02004785HS02004788        0.01      0.01      0.01      0.10         0.01
  HS02004480HS02004478        0.01      0.01      0.01      0.52         0.01
  YS02001759YS02001757        5.54      5.54      5.62      0.01         0.01
  YS02001762YS02001759        5.51      5.51      5.54      0.01         0.01
  YS02001765YS02001762        5.48      5.48      5.51      0.01         0.01
  YS02001770YS02001767        5.46      5.46      5.46      0.32         0.72
  YS02001774YS02001770        5.43      5.43      5.50      0.01         0.01
  YS02001779YS02001774        5.28      5.28      5.50      0.01         0.01
  YS02001649YS02001757        5.52      5.52      5.62      0.01         0.01
  YS02001767YS02001765        5.46      5.46      5.48      0.01         0.01
  YS02006561YS02001783        0.88      0.88      1.36      0.01         0.01
  YS02001783YS02001784        1.35      1.36      1.38      1.37         1.16
  YS02001784YS02001785        1.34      1.38      1.34      2.20         1.34
  YS02001788YS02001790        1.34      1.34      2.24      0.01         0.01
  YS02001790YS02001791        2.24      2.24      2.45      0.73         0.73
  YS02001791YS02001793        2.45      2.45      2.69      0.01         0.01
  YS02001910YS02001907        1.20      1.20      1.65      0.01         0.01
  YS02001786YS02001788        1.34      1.34      1.34      1.88         1.34
  YS02001915YS02001910        0.99      0.99      1.20      0.01         0.01
  YS02001918YS02001915        0.76      0.76      0.99      0.01         0.01
  YS02001923YS02001920        0.59      0.59      0.80      0.01         0.01
  YS02001926YS02001923        0.01      0.01      0.01      0.01         0.01
  YS02001929YS02001926        0.01      0.01      0.01      0.01         0.01
  YS02001920YS02001918        0.76      0.76      0.80      0.01         0.01
  YS02001629YS02163301        5.42      5.42      5.45      0.01         0.01
  YS02001619YS02001622        5.11      5.11      5.13      0.01         0.01
  YS02001622YS02001625        5.13      5.13      5.30      0.01         0.01
  YS02001625YS02001629        5.12      5.12      5.30      0.01         0.01
  YS02163301YS02001633        5.45      5.45      5.49      0.01         0.01
  YS02163601YS02164001        5.49      5.49      5.52      0.01         0.01
  YS02164001YS02001641        5.49      5.49      5.50      0.01         0.02
  YS02001641YS02001644        5.50      5.50      5.50      1.49         1.50
  YS02001647YS02001649        5.29      5.29      5.52      0.01         0.01
  YS02006553YS02006556        1.41      1.41      1.71      0.01         0.01
  YS02006556YS02006558        1.55      1.55      1.77      0.01         0.01
  YS02001907YS02006553        2.24      2.24      2.46      0.01         0.01
  YS02006558YS02006561        1.07      1.38      1.07      2.09         1.07
  YS02001633YS02163601        5.48      5.48      5.52      0.01         0.01
  YS02001644YS02001647        5.29      5.29      5.50      0.01         0.01
  YS02001745YS02001748        0.01      0.01      5.01      0.01         0.01
  YS02001748YS02001751        5.03      5.03      5.09      0.01         0.01
  YS02001751YS02001754        5.09      5.09      5.28      0.01         0.01
  YS02001754YS02001757        5.29      5.29      5.62      0.01         0.01
  YS02001882YS02001884        1.00      1.00      1.03      0.01         0.01
  YS02001884YS02001887        1.09      1.09      1.12      0.01         0.01
  YS02001890YS02001895        0.98      0.98      1.22      0.01         0.01
  YS02001895YS02001898        0.96      0.96      0.98      0.01         0.01
  YS02001898YS02001901        0.98      0.98      1.08      0.01         0.01
  YS02001901YS02001904        1.06      1.06      1.08      0.01         0.01
  YS02001904YS02001907        1.06      1.06      1.74      0.01         0.01
  YS02001887YS02001890        1.15      1.15      1.18      0.07         0.01
  YS02001652YS02001649        5.30      5.30      5.52      0.01         0.01
  YS02001655YS02001652        5.12      5.12      5.29      0.01         0.01
  YS02001658YS02001655        5.02      5.02      5.12      0.01         0.01
  YS02001661YS02001658        0.23      0.23      5.02      0.01         0.01
  YS02001664YS02001661        0.01      0.01      1.28      0.01         0.01
  YS02001793JiankangQianchi        2.61      2.61      4.06      0.01         0.01
  YS02001757CaochengTiaoxuchi        4.82      4.82      5.62      0.01         0.01
  
  
  ***************
  Pumping Summary
  ***************
  
  ---------------------------------------------------------------------------------------------------------
                                                  Min       Avg       Max     Total     Power    % Time Off
                        Percent   Number of      Flow      Flow      Flow    Volume     Usage    Pump Curve
  Pump                 Utilized   Start-Ups       LPS       LPS       LPS  10^6 ltr     Kw-hr    Low   High
  ---------------------------------------------------------------------------------------------------------
  CC-Pump-1               61.65           4      0.00    135.90    200.00     2.362      3.65    0.0   13.2
  CC-Pump-2               57.39           7      0.00    144.97    200.00     2.339      3.82    0.0   14.2
  JK-Pump-1               85.10           5      0.00    209.74    300.00     3.872     35.83    0.0    0.0
  JK-Pump-2               76.59           6      0.00    180.82    300.00     3.396     37.47    0.0    0.0
  XR-Pump-1               68.07           7      0.00     65.82     95.00     1.283      9.55    0.0    0.0
  XR-Pump-2               82.96           8      0.00     74.69     95.00     1.710     12.99    0.0    0.0
  XR-Pump-3               85.08           7      0.00     64.22     95.00     1.539     10.61    0.0    0.0
  XR-Pump-4               80.83           9      0.00     62.57     95.00     1.453     10.41    0.0    0.0
  

  Analysis begun on:  Fri Jan  7 21:58:29 2022
  Analysis ended on:  Fri Jan  7 21:58:33 2022
  Total elapsed time: 00:00:04