
  EPA STORM WATER MANAGEMENT MODEL - VERSION 5.1 (Build 5.3.0.dev0)
  --------------------------------------------------------------

  WARNING 04: minimum elevation drop used for Conduit WS02004404WS02004405
  WARNING 03: negative offset ignored for Link YS02001904YS02001907
  
  *********************************************************
  NOTE: The summary statistics displayed in this report are
  based on results found at every computational time step,  
  not just on results from each reporting time step.
  *********************************************************
  
  ****************
  Analysis Options
  ****************
  Flow Units ............... LPS
  Process Models:
    Rainfall/Runoff ........ YES
    RDII ................... NO
    Snowmelt ............... NO
    Groundwater ............ NO
    Flow Routing ........... YES
    Ponding Allowed ........ NO
    Water Quality .......... NO
  Infiltration Method ...... HORTON
  Flow Routing Method ...... DYNWAVE
  Surcharge Method ......... EXTRAN
  Starting Date ............ 08/28/2015 08:00:00
  Ending Date .............. 08/28/2015 15:50:00
  Antecedent Dry Days ...... 8.0
  Report Time Step ......... 00:01:00
  Wet Time Step ............ 00:01:00
  Dry Time Step ............ 00:01:00
  Routing Time Step ........ 5.00 sec
  Variable Time Step ....... YES
  Maximum Trials ........... 8
  Number of Threads ........ 4
  Head Tolerance ........... 0.001500 m
  
  
  **************************        Volume         Depth
  Runoff Quantity Continuity     hectare-m            mm
  **************************     ---------       -------
  Total Precipitation ......        10.887        23.836
  Evaporation Loss .........         0.000         0.000
  Infiltration Loss ........         2.344         5.132
  Surface Runoff ...........         7.303        15.990
  Final Storage ............         1.241         2.717
  Continuity Error (%) .....        -0.012
  
  
  **************************        Volume        Volume
  Flow Routing Continuity        hectare-m      10^6 ltr
  **************************     ---------     ---------
  Dry Weather Inflow .......         0.616         6.165
  Wet Weather Inflow .......         7.302        73.016
  Groundwater Inflow .......         0.000         0.000
  RDII Inflow ..............         0.000         0.000
  External Inflow ..........         0.102         1.024
  External Outflow .........         2.346        23.456
  Flooding Loss ............         5.119        51.189
  Evaporation Loss .........         0.000         0.000
  Exfiltration Loss ........         0.000         0.000
  Initial Stored Volume ....         0.076         0.761
  Final Stored Volume ......         0.660         6.596
  Continuity Error (%) .....        -0.342
  
  
  *************************
  Highest Continuity Errors
  *************************
  Node HS02004842 (8.73%)
  Node YS02001884 (7.51%)
  Node HS02004817 (1.69%)
  Node JK-storage (-1.68%)
  Node YSB1171 (1.47%)
  
  
  ***************************
  Time-Step Critical Elements
  ***************************
  Link 3 (46.32%)
  Link WS02006252WS02006251 (44.10%)
  Link WS02006238WS02006235 (3.33%)
  
  
  ********************************
  Highest Flow Instability Indexes
  ********************************
  Link WS02006113WS02006111 (28)
  Link WS02006111WS02006112 (28)
  Link YS02163601YS02164001 (27)
  Link YS02163301YS02001633 (27)
  Link YS02001629YS02163301 (27)
  
  
  *************************
  Routing Time Step Summary
  *************************
  Minimum Time Step           :     0.50 sec
  Average Time Step           :     0.73 sec
  Maximum Time Step           :     5.00 sec
  Percent in Steady State     :    -0.00
  Average Iterations per Step :     3.67
  Percent Not Converging      :    12.16
  
  
  ***************************
  Subcatchment Runoff Summary
  ***************************
  
  ------------------------------------------------------------------------------------------------------------------------------
                            Total      Total      Total      Total     Imperv       Perv      Total       Total     Peak  Runoff
                           Precip      Runon       Evap      Infil     Runoff     Runoff     Runoff      Runoff   Runoff   Coeff
  Subcatchment                 mm         mm         mm         mm         mm         mm         mm    10^6 ltr      LPS
  ------------------------------------------------------------------------------------------------------------------------------
  sub0                      23.84       0.00       0.00       1.03      20.90       0.64      21.54        0.02     4.74   0.904
  sub1                      23.84       0.00       0.00       1.74      19.95       0.88      20.83        0.14    30.53   0.874
  sub2                      23.84       0.00       0.00       6.87      14.10       1.95      16.05        0.15    28.29   0.673
  sub3                      23.84       0.00       0.00       7.14      14.06       1.68      15.74        0.35    61.76   0.660
  sub4                      23.84       0.00       0.00       1.87      19.78       0.75      20.54        0.43    72.83   0.862
  sub5                      23.84       0.00       0.00       1.08      20.85       0.59      21.44        0.24    54.28   0.899
  sub7                      23.84       0.00       0.00       1.37      20.44       0.77      21.21        0.07    17.57   0.890
  sub8                      23.84       0.00       0.00       1.38      20.42       0.76      21.19        0.14    32.08   0.889
  sub9                      23.84       0.00       0.00       1.39      20.42       0.76      21.18        0.10    23.95   0.889
  sub10                     23.84       0.00       0.00       1.24      20.63       0.67      21.30        0.23    53.40   0.894
  sub11                     23.84       0.00       0.00       1.22      20.65       0.69      21.34        0.25    59.71   0.895
  sub12                     23.84       0.00       0.00       1.98      19.55       1.11      20.66        0.18    46.17   0.867
  sub14                     23.84       0.00       0.00       1.39      20.42       0.76      21.18        0.20    47.08   0.888
  sub15                     23.84       0.00       0.00       5.16      15.70       1.99      17.70        0.30    64.58   0.742
  sub16                     23.84       0.00       0.00       5.46      15.05       2.40      17.45        0.18    41.69   0.732
  sub17                     23.84       0.00       0.00       5.32      15.27       2.31      17.58        0.15    34.22   0.738
  sub22                     23.84       0.00       0.00       7.63      12.80       2.62      15.42        0.97   202.91   0.647
  sub23                     23.84       0.00       0.00       6.37      14.15       2.45      16.60        0.79   171.10   0.696
  sub60                     23.84       0.00       0.00       2.46      17.68       0.40      18.08        5.48   635.50   0.759
  sub61                     23.84       0.00       0.00       3.48      17.44       0.57      18.00        5.55   687.97   0.755
  sub62                     23.84       0.00       0.00       1.52      19.11       0.39      19.50        5.99   726.55   0.818
  sub63                     23.84       0.00       0.00       6.22      15.11       0.70      15.81        4.78   606.27   0.663
  sub64                     23.84       0.00       0.00       3.15      17.01       0.42      17.43        5.30   611.50   0.731
  sub65                     23.84       0.00       0.00       2.70      17.34       0.40      17.73        5.45   625.37   0.744
  sub66                     23.84       0.00       0.00       6.42      14.44       0.49      14.93        4.58   541.58   0.626
  sub67                     23.84       0.00       0.00       1.46      19.71       0.45      20.16        6.22   787.40   0.846
  sub68                     23.84       0.00       0.00       2.78      18.22       0.56      18.78        5.78   724.10   0.788
  sub69                     23.84       0.00       0.00       2.86      18.50       0.72      19.22        4.49   586.55   0.806
  sub70                     23.84      19.62       0.00       9.95      26.14       3.78      29.92        6.85   801.71   0.689
  sub71                     23.84       0.00       0.00       1.54      18.81       0.36      19.18        4.53   536.91   0.805
  sub72                     23.84       0.00       0.00       1.45      16.32       0.22      16.55        3.37   330.66   0.694
  sub73                     23.84      29.13       0.00       9.95      31.58       5.28      36.86        8.66   884.85   0.696
  sub74                     23.84       0.00       0.00      17.30       5.48       0.57       6.05        2.42   323.16   0.254
  
  
  ******************
  Node Depth Summary
  ******************
  
  ---------------------------------------------------------------------------------
                                 Average  Maximum  Maximum  Time of Max    Reported
                                   Depth    Depth      HGL   Occurrence   Max Depth
  Node                 Type       Meters   Meters   Meters  days hr:min      Meters
  ---------------------------------------------------------------------------------
  WS02001211           JUNCTION     0.64     0.78     5.62     0  03:31        0.78
  WS02001212           JUNCTION     0.38     0.51     5.57     0  01:42        0.51
  WS02001213           JUNCTION     0.63     0.79     5.55     0  01:42        0.79
  WS02003069           JUNCTION     0.47     0.67     5.25     0  01:43        0.67
  WS02003072           JUNCTION     0.54     0.72     5.09     0  01:44        0.72
  WS02003073           JUNCTION     0.32     0.45     4.51     0  01:45        0.45
  WS02003060           JUNCTION     0.42     0.59     5.52     0  01:43        0.59
  WS02003066           JUNCTION     0.26     0.38     5.93     0  01:42        0.38
  WS02003059           JUNCTION     0.69     0.85     5.54     0  01:42        0.85
  WS02003067           JUNCTION     0.63     0.81     6.13     0  01:41        0.81
  WS02004401           JUNCTION     0.79     1.42     7.42     0  01:31        1.19
  WS02004402           JUNCTION     0.81     1.28     7.24     0  01:31        1.18
  WS02004403           JUNCTION     0.83     1.36     7.29     0  01:31        1.17
  WS02004404           JUNCTION     0.89     1.30     7.15     0  01:32        1.21
  WS02004406           JUNCTION     0.89     1.44     7.27     0  01:31        1.15
  WS02004409           JUNCTION     0.59     0.92     6.69     0  01:39        0.92
  WS02004410           JUNCTION     0.60     0.91     6.63     0  01:40        0.91
  WS02004411           JUNCTION     0.61     0.90     6.58     0  01:39        0.90
  WS02004412           JUNCTION     0.62     0.88     6.52     0  01:40        0.88
  WS02004413           JUNCTION     0.77     1.01     6.48     0  01:40        1.01
  WS02004405           JUNCTION     0.89     1.30     7.15     0  01:32        1.19
  WS02006109           JUNCTION     0.89     1.51     8.13     0  01:38        1.50
  WS02006110           JUNCTION     0.85     1.33     7.92     0  01:38        1.32
  WS02006111           JUNCTION     0.30     0.81     7.52     0  01:38        0.81
  WS02006112           JUNCTION     0.98     1.87     7.75     0  01:32        1.50
  WS02006113           JUNCTION     0.41     0.82     7.72     0  01:38        0.82
  WS02006115           JUNCTION     0.69     1.97     8.11     0  01:32        1.16
  WS02006116           JUNCTION     0.77     1.86     7.90     0  01:32        1.21
  WS02006230           JUNCTION     0.90     2.15     8.89     0  01:29        1.66
  WS02006231           JUNCTION     0.62     1.68     8.80     0  01:29        1.30
  WS02006232           JUNCTION     0.76     1.90     8.94     0  01:29        1.37
  WS02006234           JUNCTION     0.67     1.96     9.12     0  01:29        1.26
  WS02006235           JUNCTION     0.70     2.00     9.16     0  01:29        1.25
  WS02006238           JUNCTION     0.73     2.08     9.23     0  01:29        1.27
  WS02006240           JUNCTION     0.63     2.10     9.39     0  01:29        1.14
  WS02006242           JUNCTION     0.68     1.55     8.82     0  01:29        1.18
  WS02006243           JUNCTION     0.56     1.48     8.90     0  01:29        1.03
  WS02006245           JUNCTION     0.53     1.56     9.04     0  01:29        0.98
  WS02006247           JUNCTION     0.54     1.47     8.97     0  01:29        0.97
  WS02006248           JUNCTION     0.48     1.10     8.69     0  01:29        0.89
  WS02006249           JUNCTION     0.50     0.93     8.53     0  01:35        0.89
  WS02006239           JUNCTION     0.69     2.03     9.24     0  01:29        1.21
  WS02006251           JUNCTION     0.50     1.02     8.69     0  01:37        1.02
  WS02006252           JUNCTION     0.40     0.59     8.84     0  01:30        0.59
  WS02006253           JUNCTION     0.53     1.06     8.71     0  01:37        1.06
  WS02006256           JUNCTION     1.08     2.35     9.28     0  00:00        1.25
  WS02004138           JUNCTION     0.14     0.19     7.44     0  04:00        0.19
  WS02004407           JUNCTION     0.26     0.39     6.70     0  01:39        0.39
  WS02006228           JUNCTION     0.91     1.66     8.31     0  01:38        1.65
  WS02006229           JUNCTION     0.91     1.72     8.41     0  01:38        1.71
  WS02006280           JUNCTION     0.10     0.31     8.58     0  01:38        0.31
  WS02006284           JUNCTION     0.41     0.68     9.08     0  01:36        0.68
  WS02006287           JUNCTION     0.15     0.43     9.38     0  01:36        0.43
  WSF200               JUNCTION     0.26     0.42     5.65     0  01:43        0.42
  HS02004901           JUNCTION     0.17     0.40    10.23     0  01:33        0.40
  HS02004881           JUNCTION     0.02     0.06     9.09     0  01:36        0.06
  HS02004876           JUNCTION     0.06     0.18     9.21     0  01:36        0.18
  HS02004870           JUNCTION     0.03     0.11     9.39     0  01:36        0.11
  HS02004862           JUNCTION     0.03     0.12     9.50     0  01:37        0.12
  HS02004856           JUNCTION     0.09     0.16     9.59     0  01:37        0.16
  HS02004852           JUNCTION     0.02     0.09     9.60     0  01:37        0.09
  HS02004848           JUNCTION     0.02     0.08     9.68     0  01:37        0.08
  HS02004842           JUNCTION     0.34     0.41     9.68     0  01:37        0.41
  HS02004837           JUNCTION     0.04     0.10     9.68     0  01:37        0.10
  HS02004830           JUNCTION     0.05     0.13     9.60     0  01:36        0.13
  HS02004824           JUNCTION     0.04     0.17     9.57     0  01:35        0.17
  HS02004817           JUNCTION     0.48     0.74     9.59     0  01:35        0.74
  HS02004807           JUNCTION     0.17     0.41     9.58     0  01:35        0.41
  HS02004802           JUNCTION     0.20     0.44     9.56     0  01:36        0.44
  HS02004799           JUNCTION     0.18     0.51     9.72     0  01:34        0.51
  HS02004792           JUNCTION     0.06     0.24     9.76     0  01:33        0.24
  HS02004788           JUNCTION     0.05     0.17    10.07     0  01:34        0.17
  HS02004785           JUNCTION     0.08     0.27    10.17     0  01:33        0.27
  HS02004777           JUNCTION     0.19     0.41    10.21     0  01:33        0.41
  HS02004770           JUNCTION     0.16     0.39    10.22     0  01:33        0.39
  HS02004480           JUNCTION     0.13     0.42     9.66     0  01:34        0.42
  HS02004479           JUNCTION     0.17     0.46     9.66     0  01:34        0.46
  HS02004478           JUNCTION     0.10     0.32     9.54     0  01:36        0.32
  YS02001745           JUNCTION     0.83     1.71     9.23     0  01:33        1.04
  YS02001748           JUNCTION     1.24     2.27     9.35     0  01:32        1.46
  YS02001751           JUNCTION     1.42     2.20     9.08     0  01:32        1.63
  YS02001754           JUNCTION     1.68     2.20     8.81     0  01:32        1.88
  YS02001762           JUNCTION     1.88     2.08     8.48     0  01:33        2.07
  YS02001765           JUNCTION     1.83     2.03     8.48     0  01:33        2.01
  YS02001767           JUNCTION     1.79     1.97     8.46     0  01:33        1.97
  YS02001770           JUNCTION     1.79     1.95     8.44     0  01:31        1.95
  YS02001774           JUNCTION     1.85     2.01     8.44     0  01:31        1.99
  YS02001779           JUNCTION     1.58     1.68     8.37     0  01:30        1.68
  YS02001882           JUNCTION     0.87     1.67     8.38     0  01:37        1.63
  YS02001884           JUNCTION     0.97     1.76     8.37     0  01:37        1.73
  YS02001759           JUNCTION     1.91     2.13     8.49     0  01:33        2.11
  YS02001887           JUNCTION     1.04     1.82     8.36     0  01:55        1.81
  YS02001890           JUNCTION     1.07     1.81     8.32     0  01:37        1.81
  YS02001898           JUNCTION     0.83     1.58     8.31     0  01:37        1.56
  YS02001901           JUNCTION     0.95     1.68     8.29     0  01:37        1.67
  YS02001904           JUNCTION     0.92     1.64     8.27     0  01:37        1.63
  YS02001907           JUNCTION     1.25     1.96     8.25     0  01:37        1.96
  YS02001910           JUNCTION     1.05     1.92     8.43     0  01:37        1.79
  YS02001915           JUNCTION     0.85     1.92     8.63     0  01:35        1.62
  YS02001918           JUNCTION     0.58     1.81     8.88     0  01:37        1.32
  YS02001619           JUNCTION     1.37     1.61     8.54     0  01:31        1.50
  YS02001629           JUNCTION     1.73     1.85     8.40     0  01:31        1.85
  YS02001641           JUNCTION     1.82     1.95     8.39     0  01:32        1.94
  YS02001644           JUNCTION     1.82     1.92     8.35     0  01:32        1.92
  YS02001652           JUNCTION     1.69     2.16     8.76     0  01:33        1.92
  YS02001655           JUNCTION     1.45     2.20     9.05     0  01:32        1.84
  YS02001920           JUNCTION     0.67     1.70     8.70     0  01:39        1.40
  YS02001923           JUNCTION     0.48     1.50     8.76     0  01:39        1.18
  YS02001926           JUNCTION     0.47     1.29     8.74     0  01:39        1.11
  YS02001929           JUNCTION     0.31     0.90     8.59     0  01:39        0.87
  YS02001658           JUNCTION     1.17     2.30     9.44     0  01:32        2.04
  YS02001661           JUNCTION     0.93     2.46     9.86     0  01:33        2.20
  YS02001664           JUNCTION     0.43     0.76     8.68     0  01:33        0.71
  YS02001622           JUNCTION     1.39     1.62     8.52     0  01:31        1.51
  YS02001633           JUNCTION     1.82     1.97     8.42     0  01:32        1.96
  YS02001649           JUNCTION     1.88     2.05     8.44     0  01:32        2.05
  YS02001757           JUNCTION     2.01     2.21     8.47     0  01:32        2.21
  YS02001895           JUNCTION     0.83     1.57     8.32     0  01:37        1.57
  YS02001625           JUNCTION     1.67     1.78     8.38     0  01:31        1.78
  YS02163301           JUNCTION     1.76     1.92     8.44     0  01:31        1.89
  YS02163601           JUNCTION     1.87     2.02     8.42     0  01:32        1.99
  YS02164001           JUNCTION     1.80     1.95     8.41     0  01:32        1.93
  YS02001647           JUNCTION     1.66     1.85     8.46     0  01:32        1.79
  YSB1154              JUNCTION     0.31     0.61     9.67     0  01:34        0.61
  YSB6556              JUNCTION     0.20     0.50     9.67     0  01:34        0.50
  YSB1174              JUNCTION     0.26     0.56     9.67     0  01:34        0.56
  YSB1171              JUNCTION     0.46     0.76     9.67     0  01:34        0.76
  YS02006553           JUNCTION     1.25     2.16     8.45     0  01:41        1.97
  YS02006561           JUNCTION     0.54     1.76     8.42     0  01:41        1.10
  YS02006556           JUNCTION     1.22     2.38     8.69     0  01:41        1.95
  YS02006558           JUNCTION     1.26     2.50     8.77     0  01:41        2.00
  YS02001783           JUNCTION     0.84     2.28     8.42     0  01:41        1.49
  YS02001784           JUNCTION     0.84     2.29     8.36     0  01:41        1.44
  YS02001786           JUNCTION     0.76     2.23     8.26     0  01:41        1.28
  YS02001788           JUNCTION     0.68     2.28     8.26     0  01:41        1.14
  YS02001790           JUNCTION     0.83     1.96     7.60     0  01:41        1.30
  YS02001791           JUNCTION     0.82     2.13     7.60     0  01:41        1.28
  YS02001793           JUNCTION     1.17     2.07     6.90     0  01:41        1.80
  WS02004139           JUNCTION     0.58     0.72     5.63     0  03:32        0.72
  WSC                  OUTFALL      0.32     0.45     1.12     0  01:45        0.45
  3                    OUTFALL      0.12     0.30     6.30     0  01:30        0.24
  4                    OUTFALL      0.06     0.30     7.30     0  01:33        0.30
  5                    OUTFALL      0.00     0.00     5.00     0  00:00        0.00
  JK-storage           STORAGE      4.17     5.80     6.60     0  01:41        5.80
  CC-storage           STORAGE      1.21     1.46     8.46     0  03:04        1.46
  XR-storage           STORAGE      7.63     7.72     5.72     0  01:29        7.72
  
  
  *******************
  Node Inflow Summary
  *******************
  
  -------------------------------------------------------------------------------------------------
                                  Maximum  Maximum                  Lateral       Total        Flow
                                  Lateral    Total  Time of Max      Inflow      Inflow     Balance
                                   Inflow   Inflow   Occurrence      Volume      Volume       Error
  Node                 Type           LPS      LPS  days hr:min    10^6 ltr    10^6 ltr     Percent
  -------------------------------------------------------------------------------------------------
  WS02001211           JUNCTION      7.35   380.85     0  04:00       0.207        5.77       0.534
  WS02001212           JUNCTION      0.00   375.61     0  04:01           0        5.74       0.297
  WS02001213           JUNCTION      0.00   373.33     0  05:01           0        5.72       0.348
  WS02003069           JUNCTION      0.32  1182.02     0  01:43     0.00902        16.9       0.162
  WS02003072           JUNCTION      0.00  1181.63     0  01:44           0        16.9       0.201
  WS02003073           JUNCTION      1.82  1183.58     0  01:44      0.0514        16.9       0.222
  WS02003060           JUNCTION     16.53  1182.07     0  01:43       0.466        16.9       0.154
  WS02003066           JUNCTION      0.00   896.51     0  01:40           0        10.8       0.042
  WS02003059           JUNCTION      0.00   370.67     0  05:01           0         5.7       0.618
  WS02003067           JUNCTION      0.00   896.48     0  01:40           0        10.8       0.087
  WS02004401           JUNCTION      0.00   897.02     0  01:39           0          11       0.197
  WS02004402           JUNCTION      0.00   897.01     0  01:39           0          11       0.186
  WS02004403           JUNCTION      0.00   897.01     0  01:39           0          11       0.168
  WS02004404           JUNCTION      0.16   897.18     0  01:39     0.00457          11       0.125
  WS02004406           JUNCTION      0.00   897.22     0  01:39           0          11       0.305
  WS02004409           JUNCTION      0.00   897.16     0  01:39           0        10.9       0.154
  WS02004410           JUNCTION      0.00   897.56     0  01:39           0        10.9       0.173
  WS02004411           JUNCTION      0.00   897.44     0  01:39           0        10.9       0.177
  WS02004412           JUNCTION      0.00   896.35     0  01:40           0        10.9       0.190
  WS02004413           JUNCTION      0.00   896.41     0  01:40           0        10.8       0.285
  WS02004405           JUNCTION      0.04   897.22     0  01:39     0.00107          11       0.190
  WS02006109           JUNCTION      1.23   889.61     0  01:32      0.0347          11       0.197
  WS02006110           JUNCTION      0.00   889.67     0  01:32           0          11       0.182
  WS02006111           JUNCTION      0.00   885.34     0  01:31           0          11       0.035
  WS02006112           JUNCTION     34.22   897.12     0  01:39       0.151        11.1       0.250
  WS02006113           JUNCTION      0.00   889.76     0  01:32           0          11       0.097
  WS02006115           JUNCTION      0.00   897.03     0  01:39           0        11.1       0.190
  WS02006116           JUNCTION      0.00   897.03     0  01:39           0        11.1       0.142
  WS02006230           JUNCTION     10.28   403.01     0  05:50        0.29        6.95       0.200
  WS02006231           JUNCTION      0.00   392.92     0  05:50           0        6.65       0.152
  WS02006232           JUNCTION      0.00   392.90     0  05:50           0        6.64       0.246
  WS02006234           JUNCTION      0.00   393.02     0  05:50           0        6.65       0.132
  WS02006235           JUNCTION      0.00   393.02     0  05:50           0        6.83       0.143
  WS02006238           JUNCTION      0.00   344.29     0  05:20           0        5.26       0.152
  WS02006240           JUNCTION      0.00   338.67     0  05:20           0        5.24       0.214
  WS02006242           JUNCTION      0.00   338.03     0  03:51           0        5.25       0.291
  WS02006243           JUNCTION      0.00   377.02     0  01:29           0        5.25       0.072
  WS02006245           JUNCTION      0.00   398.80     0  01:29           0        5.26       0.193
  WS02006247           JUNCTION      0.00   414.07     0  01:29           0        5.27       0.134
  WS02006248           JUNCTION      0.00   421.30     0  01:29           0        5.27       0.086
  WS02006249           JUNCTION      0.00   580.47     0  01:37           0        6.72       0.138
  WS02006239           JUNCTION      0.00   342.38     0  05:20           0        5.25       0.213
  WS02006251           JUNCTION      0.08   583.04     0  01:37     0.00217        6.75       0.133
  WS02006252           JUNCTION      0.00   400.00     0  01:30           0         5.9       0.007
  WS02006253           JUNCTION      4.74   178.63     0  01:36      0.0174       0.851       0.419
  WS02006256           JUNCTION      0.00   631.31     0  01:30           0        6.77       0.038
  WS02004138           JUNCTION      0.00   379.98     0  03:30           0        5.59       0.066
  WS02004407           JUNCTION      0.00   897.24     0  01:39           0        10.9       0.069
  WS02006228           JUNCTION      0.00   888.45     0  01:32           0          11       0.143
  WS02006229           JUNCTION      0.00   890.09     0  01:32           0          11       0.122
  WS02006280           JUNCTION      0.00   821.28     0  01:36           0        4.12       0.001
  WS02006284           JUNCTION      0.10   821.27     0  01:36      0.0027        4.12       0.024
  WS02006287           JUNCTION      0.00   821.18     0  01:36           0        4.12       0.018
  WSF200               JUNCTION      0.00   896.26     0  01:40           0        10.8       0.041
  HS02004901           JUNCTION     41.69    41.69     0  01:31       0.183       0.183       0.972
  HS02004881           JUNCTION     17.57   174.51     0  01:36      0.0714       0.818       0.071
  HS02004876           JUNCTION     30.53   157.86     0  01:36       0.138       0.747       0.075
  HS02004870           JUNCTION     32.08   127.64     0  01:36       0.135       0.609       0.018
  HS02004862           JUNCTION     28.49    96.84     0  01:37       0.155       0.474       0.037
  HS02004856           JUNCTION     23.95    68.40     0  01:36       0.102        0.32       0.455
  HS02004852           JUNCTION      0.00    45.39     0  01:37           0       0.218       0.028
  HS02004848           JUNCTION     61.76    61.76     0  01:40       0.354       0.354       0.013
  HS02004842           JUNCTION      0.00    18.52     0  01:51           0       0.149       9.567
  HS02004837           JUNCTION     59.75    74.34     0  01:37       0.414        0.55       0.147
  HS02004830           JUNCTION      0.15    74.45     0  01:37     0.00423        0.54       0.229
  HS02004824           JUNCTION     72.88   147.24     0  01:40        0.43       0.969       0.056
  HS02004817           JUNCTION      0.60   150.86     0  01:40      0.0169       0.985       1.724
  HS02004807           JUNCTION     59.71   205.67     0  01:37       0.248        1.22       0.360
  HS02004802           JUNCTION      0.00   204.81     0  01:39           0        1.22       0.326
  HS02004799           JUNCTION     47.08   525.51     0  01:33       0.202         2.5       0.119
  HS02004792           JUNCTION    203.19   478.62     0  01:33       0.982         2.3       0.017
  HS02004788           JUNCTION     66.25   277.11     0  01:34       0.351        1.32       0.029
  HS02004785           JUNCTION      0.15   210.94     0  01:33     0.00423       0.971       0.053
  HS02004777           JUNCTION      0.03   211.16     0  01:32    0.000846       0.971       0.540
  HS02004770           JUNCTION    171.10   212.05     0  01:32       0.791       0.972       0.316
  HS02004480           JUNCTION      0.00   623.60     0  01:34           0        2.92       0.035
  HS02004479           JUNCTION      0.00    98.35     0  01:34           0       0.432       0.172
  HS02004478           JUNCTION      0.00   821.13     0  01:36           0        4.12       0.008
  YS02001745           JUNCTION    635.50   635.50     0  03:01        5.48        5.48       0.216
  YS02001748           JUNCTION      0.04   636.31     0  03:01     0.00127        5.47       0.413
  YS02001751           JUNCTION      0.01   636.35     0  03:01     0.00031        5.45       0.440
  YS02001754           JUNCTION      0.26   636.64     0  03:01     0.00733        5.44       0.446
  YS02001762           JUNCTION      0.00   364.92     0  01:45           0        2.91       0.726
  YS02001765           JUNCTION      0.00   365.24     0  01:45           0        2.91       0.839
  YS02001767           JUNCTION      0.54   365.14     0  01:45      0.0151        2.93       1.228
  YS02001770           JUNCTION    726.70  1062.96     0  03:01           6        7.38       0.424
  YS02001774           JUNCTION      0.00   851.17     0  03:01           0        5.62       0.444
  YS02001779           JUNCTION      0.01   851.17     0  03:01    0.000141        5.59       0.274
  YS02001882           JUNCTION      0.00    44.19     0  01:34           0      0.0492       4.491
  YS02001884           JUNCTION      0.00    53.49     0  01:32           0      0.0897       8.115
  YS02001759           JUNCTION    688.01   891.22     0  01:50        5.55        7.05       0.322
  YS02001887           JUNCTION    787.85   787.85     0  03:01        6.23        6.27       0.149
  YS02001890           JUNCTION      0.00   787.88     0  03:01           0        6.22       0.154
  YS02001898           JUNCTION      0.00   570.44     0  01:38           0        5.26       0.069
  YS02001901           JUNCTION      0.00   571.08     0  01:38           0        5.25       0.131
  YS02001904           JUNCTION      0.00   570.73     0  01:38           0        5.25       0.115
  YS02001907           JUNCTION      0.00  1384.51     0  03:01           0        13.2       0.188
  YS02001910           JUNCTION      0.00   868.05     0  03:01           0        7.97       0.173
  YS02001915           JUNCTION    536.93   868.02     0  03:01        4.53        8.02       0.073
  YS02001918           JUNCTION      0.00   356.35     0  01:39           0        3.52       0.048
  YS02001619           JUNCTION    541.58   541.58     0  03:01        4.58        4.58       0.266
  YS02001629           JUNCTION      0.00   363.54     0  01:31           0        1.87       1.521
  YS02001641           JUNCTION      0.00   450.73     0  01:32           0        5.95       0.352
  YS02001644           JUNCTION    611.54  1882.09     0  03:01         5.3        17.4       0.148
  YS02001652           JUNCTION      0.00   607.55     0  03:01           0        4.73       0.477
  YS02001655           JUNCTION      0.15   607.54     0  03:01     0.00434        4.76       0.535
  YS02001920           JUNCTION      2.87   356.14     0  01:39      0.0809         3.5       0.096
  YS02001923           JUNCTION      0.04   333.62     0  03:01     0.00106         3.4       0.041
  YS02001926           JUNCTION      0.05   330.56     0  03:01     0.00147        3.38       0.105
  YS02001929           JUNCTION    330.66   330.66     0  03:01        3.37        3.37       0.022
  YS02001658           JUNCTION      0.00   607.37     0  03:01           0        4.78       0.479
  YS02001661           JUNCTION      0.00   808.89     0  01:50           0         5.4       0.075
  YS02001664           JUNCTION    606.27   606.27     0  03:01        4.78        5.41       0.116
  YS02001622           JUNCTION      0.00   541.60     0  03:01           0        4.57       0.695
  YS02001633           JUNCTION    625.57   625.57     0  03:01        5.46        6.64       0.483
  YS02001649           JUNCTION      0.00  1363.17     0  03:01           0        9.37       0.393
  YS02001757           JUNCTION      0.00  2174.74     0  01:49           0        13.3       0.697
  YS02001895           JUNCTION      0.00   570.21     0  01:38           0        5.25       0.112
  YS02001625           JUNCTION      0.00   743.58     0  03:01           0        5.19       0.774
  YS02163301           JUNCTION      0.00   314.53     0  01:30           0        1.87       1.289
  YS02163601           JUNCTION      0.11   450.31     0  01:32      0.0031        5.95       0.504
  YS02164001           JUNCTION      0.00   450.62     0  01:32           0        5.94       0.336
  YS02001647           JUNCTION      0.00   846.70     0  03:17           0        7.36       0.384
  YSB1154              JUNCTION     54.28    54.28     0  01:34       0.243       0.243       0.595
  YSB6556              JUNCTION      0.00    54.37     0  01:35           0       0.244       0.519
  YSB1174              JUNCTION     46.17    46.17     0  01:30        0.18       0.181       0.712
  YSB1171              JUNCTION      0.00    98.47     0  01:34           0       0.431       1.496
  YS02006553           JUNCTION      0.00   699.79     0  03:51           0        7.69       0.207
  YS02006561           JUNCTION      0.00  1146.50     0  01:41           0        13.4       0.006
  YS02006556           JUNCTION      0.00   700.00     0  03:51           0         7.7       0.150
  YS02006558           JUNCTION    724.98  1146.72     0  01:41         5.8        13.5       0.040
  YS02001783           JUNCTION      0.00  1146.53     0  01:41           0        13.4       0.022
  YS02001784           JUNCTION      1.06  1147.83     0  01:41      0.0299        13.5       0.035
  YS02001786           JUNCTION      0.06  1147.66     0  01:41     0.00159        13.4       0.031
  YS02001788           JUNCTION      0.07  1148.54     0  01:41       0.002        13.4       0.017
  YS02001790           JUNCTION      0.15  1157.30     0  01:39     0.00437        13.4       0.024
  YS02001791           JUNCTION      0.00  1261.00     0  01:39           0        13.4       0.008
  YS02001793           JUNCTION      0.00  1218.61     0  01:40           0        13.4       0.000
  WS02004139           JUNCTION      0.32   379.65     0  04:00     0.00905        5.59       0.573
  WSC                  OUTFALL       0.00  1184.12     0  01:45           0        16.9       0.000
  3                    OUTFALL       0.00   635.72     0  01:30           0        5.17       0.000
  4                    OUTFALL       0.00   447.96     0  01:34           0        1.44       0.000
  5                    OUTFALL       0.00     0.00     0  00:00           0           0       0.000 ltr
  JK-storage           STORAGE       0.00  1201.25     0  01:38           0        13.6      -1.651
  CC-storage           STORAGE       0.00  2174.95     0  01:49           0        9.69       0.510
  XR-storage           STORAGE    1408.02  1408.02     0  03:01        16.7        17.3      -0.001
  
  
  **********************
  Node Surcharge Summary
  **********************
  
  Surcharging occurs when water rises above the top of the highest conduit.
  ---------------------------------------------------------------------
                                               Max. Height   Min. Depth
                                   Hours       Above Crown    Below Rim
  Node                 Type      Surcharged         Meters       Meters
  ---------------------------------------------------------------------
  WS02004401           JUNCTION        1.29          0.423        1.237
  WS02004402           JUNCTION        1.52          0.275        1.465
  WS02004403           JUNCTION        1.61          0.359        1.671
  WS02004404           JUNCTION        1.77          0.297        2.483
  WS02004406           JUNCTION        1.72          0.437        2.013
  WS02004413           JUNCTION        0.12          0.007        2.193
  WS02004405           JUNCTION        1.75          0.302        2.498
  WS02006109           JUNCTION        3.56          0.692        1.128
  WS02006110           JUNCTION        1.94          0.420        1.430
  WS02006112           JUNCTION        2.04          0.868        0.812
  WS02006113           JUNCTION        0.06          0.023        1.907
  WS02006115           JUNCTION        0.63          0.964        1.286
  WS02006116           JUNCTION        0.74          0.796        1.494
  WS02006230           JUNCTION        1.75          1.070        0.500
  WS02006231           JUNCTION        1.82          0.969        0.561
  WS02006232           JUNCTION        3.73          1.205        0.275
  WS02006234           JUNCTION        2.00          1.240        0.000
  WS02006235           JUNCTION        3.01          1.290        0.000
  WS02006238           JUNCTION        3.35          1.362        0.068
  WS02006240           JUNCTION        1.98          1.390        0.000
  WS02006242           JUNCTION        3.03          0.820        0.000
  WS02006243           JUNCTION        1.47          0.770        0.000
  WS02006245           JUNCTION        0.41          0.850        0.000
  WS02006247           JUNCTION        0.36          0.760        0.000
  WS02006248           JUNCTION        0.21          0.380        0.000
  WS02006249           JUNCTION        0.10          0.129        0.161
  WS02006239           JUNCTION        2.44          1.290        0.000
  WS02006252           JUNCTION        2.77          0.193        0.907
  WS02006253           JUNCTION        0.06          0.025        2.455
  WS02006256           JUNCTION        0.01          1.050        0.000
  WS02006228           JUNCTION        3.44          0.833        1.367
  HS02004817           JUNCTION        0.32          0.041        1.699
  YS02001745           JUNCTION        0.52          0.712        0.638
  YS02001748           JUNCTION        6.28          1.190        0.000
  YS02001751           JUNCTION        6.30          1.200        0.000
  YS02001754           JUNCTION        6.31          1.150        0.000
  YS02001762           JUNCTION        6.34          1.083        0.067
  YS02001765           JUNCTION        6.33          1.025        0.075
  YS02001767           JUNCTION        6.33          0.971        0.059
  YS02001770           JUNCTION        6.33          0.920        0.000
  YS02001774           JUNCTION        6.34          1.014        0.036
  YS02001779           JUNCTION        6.31          0.680        0.000
  YS02001882           JUNCTION        2.57          0.665        0.165
  YS02001884           JUNCTION        2.60          0.696        0.174
  YS02001759           JUNCTION        6.34          1.125        0.085
  YS02001887           JUNCTION        2.67          0.769        0.181
  YS02001890           JUNCTION        2.70          0.760        0.000
  YS02001898           JUNCTION        2.53          0.546        0.194
  YS02001901           JUNCTION        2.64          0.685        0.185
  YS02001904           JUNCTION        2.62          0.643        0.207
  YS02001907           JUNCTION        3.05          0.950        0.000
  YS02001910           JUNCTION        2.74          0.919        0.181
  YS02001915           JUNCTION        2.56          0.916        0.084
  YS02001918           JUNCTION        2.33          0.810        0.000
  YS02001619           JUNCTION        6.31          0.610        0.000
  YS02001629           JUNCTION        6.31          0.470        0.000
  YS02001641           JUNCTION        6.33          0.951        0.149
  YS02001644           JUNCTION        6.34          0.920        0.000
  YS02001652           JUNCTION        6.31          1.130        0.000
  YS02001655           JUNCTION        6.30          1.200        0.000
  YS02001920           JUNCTION        2.37          0.696        0.444
  YS02001923           JUNCTION        0.01          0.293        0.527
  YS02001926           JUNCTION        0.01          0.293        0.607
  YS02001658           JUNCTION        6.29          1.300        0.000
  YS02001661           JUNCTION        1.10          1.390        0.000
  YS02001622           JUNCTION        6.31          0.620        0.000
  YS02001633           JUNCTION        6.33          0.950        0.110
  YS02001649           JUNCTION        6.34          1.050        0.000
  YS02001757           JUNCTION        6.36          1.210        0.000
  YS02001895           JUNCTION        2.54          0.572        0.178
  YS02001625           JUNCTION        6.32          0.780        0.000
  YS02163301           JUNCTION        6.33          0.925        0.105
  YS02163601           JUNCTION        6.34          1.020        0.060
  YS02164001           JUNCTION        6.33          0.950        0.150
  YS02001647           JUNCTION        6.32          0.848        0.052
  YS02006553           JUNCTION        3.09          1.164        0.026
  YS02006561           JUNCTION        2.42          0.961        0.189
  YS02006556           JUNCTION        2.90          1.341        0.009
  YS02006558           JUNCTION        2.88          1.400        0.000
  YS02001783           JUNCTION        2.92          1.480        0.120
  YS02001784           JUNCTION        3.02          1.490        0.000
  YS02001786           JUNCTION        2.87          1.430        0.000
  YS02001788           JUNCTION        2.79          1.480        0.000
  YS02001790           JUNCTION        4.06          1.157        0.000
  YS02001791           JUNCTION        4.09          1.325        0.595
  YS02001793           JUNCTION        4.14          1.072        1.528
  
  
  *********************
  Node Flooding Summary
  *********************
  
  Flooding refers to all water that overflows a node, whether it ponds or not.
  --------------------------------------------------------------------------
                                                             Total   Maximum
                                 Maximum   Time of Max       Flood    Ponded
                        Hours       Rate    Occurrence      Volume     Depth
  Node                 Flooded       LPS   days hr:min    10^6 ltr    Meters
  --------------------------------------------------------------------------
  WS02006234              0.01     94.24      0  01:29       0.000     0.000
  WS02006235              0.01     12.85      0  01:29       0.000     0.000
  WS02006240              0.01    205.64      0  01:29       0.000     0.000
  WS02006242              0.01     80.93      0  01:29       0.000     0.000
  WS02006243              0.01    252.68      0  01:29       0.000     0.000
  WS02006245              0.01    152.93      0  01:29       0.000     0.000
  WS02006247              0.01    194.80      0  01:29       0.000     0.000
  WS02006248              0.01    262.88      0  01:29       0.000     0.000
  WS02006239              0.01    172.94      0  01:29       0.000     0.000
  WS02006256              0.01    406.11      0  00:00       0.001     0.000
  YS02001748              0.01    251.29      0  01:32       0.000     0.000
  YS02001751              0.01      4.30      0  01:32       0.000     0.000
  YS02001754              0.01      4.62      0  01:32       0.000     0.000
  YS02001770              0.58    211.77      0  03:01       0.195     0.000
  YS02001779              4.12    851.17      0  03:01       5.572     0.000
  YS02001890              1.65    271.47      0  03:01       0.959     0.000
  YS02001907              2.18   1136.82      0  03:01       5.493     0.000
  YS02001918              0.01     55.69      0  01:37       0.000     0.000
  YS02001619              0.01    119.35      0  01:31       0.000     0.000
  YS02001629              0.01    352.19      0  01:31       0.004     0.000
  YS02001644              6.10   1882.07      0  03:01      16.153     0.000
  YS02001652              0.01     19.15      0  01:39       0.000     0.000
  YS02001655              0.01     25.78      0  01:32       0.000     0.000
  YS02001658              0.01    365.55      0  01:32       0.000     0.000
  YS02001661              0.01    193.06      0  01:33       0.000     0.000
  YS02001622              0.01     79.90      0  01:31       0.000     0.000
  YS02001649              0.87    516.46      0  03:01       0.866     0.000
  YS02001757              0.01     29.24      0  01:32       0.000     0.000
  YS02001625              2.89    743.57      0  03:01       3.936     0.000
  YS02006558              0.01      5.67      0  01:41       0.000     0.000
  YS02001784              0.01     12.36      0  01:41       0.000     0.000
  YS02001786              0.01      7.48      0  01:41       0.000     0.000
  YS02001788              0.01    171.42      0  01:41       0.000     0.000
  YS02001790              0.01    164.80      0  01:41       0.000     0.000
  JK-storage              3.97    972.21      0  02:00       7.197     0.000
  XR-storage              6.16   1389.94      0  03:00      10.809     0.000
  
  
  **********************
  Storage Volume Summary
  **********************
  
  --------------------------------------------------------------------------------------------------
                         Average     Avg  Evap Exfil       Maximum     Max    Time of Max    Maximum
                          Volume    Pcnt  Pcnt  Pcnt        Volume    Pcnt     Occurrence    Outflow
  Storage Unit           1000 m3    Full  Loss  Loss       1000 m3    Full    days hr:min        LPS
  --------------------------------------------------------------------------------------------------
  JK-storage               0.210      72     0     0         0.291     100       0  01:41     600.00
  CC-storage               3.370      21     0     0         4.072      26       0  03:04     400.00
  XR-storage               0.916      99     0     0         0.926     100       0  01:29     379.98
  
  
  ***********************
  Outfall Loading Summary
  ***********************
  
  -----------------------------------------------------------
                         Flow       Avg       Max       Total
                         Freq      Flow      Flow      Volume
  Outfall Node           Pcnt       LPS       LPS    10^6 ltr
  -----------------------------------------------------------
  WSC                   99.99    675.61   1184.12      16.851
  3                     87.98    260.73    635.72       5.165
  4                     59.30    105.22    447.96       1.440
  5                      0.00      0.00      0.00       0.000
  -----------------------------------------------------------
  System                61.82   1041.56   1937.92      23.456
  
  
  ********************
  Link Flow Summary
  ********************
  
  -----------------------------------------------------------------------------
                                 Maximum  Time of Max   Maximum    Max/    Max/
                                  |Flow|   Occurrence   |Veloc|    Full    Full
  Link                 Type          LPS  days hr:min     m/sec    Flow   Depth
  -----------------------------------------------------------------------------
  WS02003066WSF200     CONDUIT    896.26     0  01:40      3.11    0.15    0.31
  WS02006287WS02006284 CONDUIT    821.18     0  01:36      2.53    0.38    0.43
  WS02006284WS02006280 CONDUIT    821.28     0  01:36      2.76    0.34    0.40
  WS02006280WS02006229 CONDUIT    821.03     0  01:36      4.29    0.18    0.43
  WS02006229WS02006228 CONDUIT    888.45     0  01:32      1.77    2.94    1.00
  WS02006256WS02006235 CONDUIT    177.52     0  00:01      2.73    1.88    1.00
  WS02006253WS02006251 CONDUIT    208.04     0  01:42      0.69    0.62    1.00
  WS02006252WS02006251 CONDUIT    400.63     0  06:47      3.19    1.47    1.00
  WS02006251WS02006249 CONDUIT    580.47     0  01:37      1.51    1.67    1.00
  WS02006249WS02006248 CONDUIT    421.30     0  01:29      1.31    2.31    1.00
  WS02006248WS02006247 CONDUIT    414.07     0  01:29      1.31    0.90    1.00
  WS02006247WS02006245 CONDUIT    398.80     0  01:29      1.24    3.16    1.00
  WS02006245WS02006243 CONDUIT    377.02     0  01:29      1.33    1.12    1.00
  WS02006243WS02006242 CONDUIT    338.03     0  03:51      1.01    0.72    1.00
  WS02006242WS02006240 CONDUIT    338.67     0  05:20      0.93    1.35    1.00
  WS02006240WS02006239 CONDUIT    342.38     0  05:20      0.97    1.08    1.00
  WS02006239WS02006238 CONDUIT    344.29     0  05:20      0.91    1.10    1.00
  WS02006238WS02006235 CONDUIT    344.28     0  05:20      1.32    0.77    1.00
  WS02006235WS02006234 CONDUIT    393.02     0  05:50      1.03    4.15    1.00
  WS02006234WS02006232 CONDUIT    392.90     0  05:50      1.17    0.79    1.00
  WS02006232WS02006231 CONDUIT    392.92     0  05:50      1.06    0.82    1.00
  WS02006231WS02006230 CONDUIT    392.73     0  05:50      1.31    5.96    1.00
  WS02006230WS02006229 CONDUIT    402.95     0  05:51      1.05    8.97    1.00
  WS02006228WS02006109 CONDUIT    888.38     0  01:32      1.77    3.88    1.00
  WS02006116WS02004401 CONDUIT    897.02     0  01:39      1.14    1.24    1.00
  WS02006115WS02006116 CONDUIT    897.03     0  01:39      1.15    1.15    1.00
  WS02006113WS02006111 CONDUIT    885.34     0  01:31      2.73    1.06    1.00
  WS02006112WS02006115 CONDUIT    897.03     0  01:39      1.16    0.53    1.00
  WS02006111WS02006112 CONDUIT    866.44     0  01:39      2.00    0.41    1.00
  WS02006110WS02006113 CONDUIT    889.76     0  01:32      1.91    0.81    1.00
  WS02006109WS02006110 CONDUIT    889.67     0  01:32      1.77    1.71    1.00
  WS02004411WS02004412 CONDUIT    896.35     0  01:40      1.24    1.27    0.89
  WS02004401WS02004402 CONDUIT    897.01     0  01:39      1.14    1.08    1.00
  WS02004413WS02003067 CONDUIT    896.48     0  01:40      1.49    0.38    0.71
  WS02004412WS02004413 CONDUIT    896.41     0  01:40      1.17    0.60    0.94
  WS02004410WS02004411 CONDUIT    897.44     0  01:39      1.30    1.23    0.91
  WS02004409WS02004410 CONDUIT    897.56     0  01:39      1.38    1.16    0.92
  WS02004407WS02004409 CONDUIT    897.16     0  01:39      1.92    0.32    0.66
  WS02004406WS02004407 CONDUIT    897.24     0  01:39      1.54    0.40    0.69
  WS02004405WS02004406 CONDUIT    897.22     0  01:39      1.14    1.77    1.00
  WS02004404WS02004405 CONDUIT    897.18     0  01:39      1.14    8.79    1.00
  WS02004403WS02004404 CONDUIT    897.01     0  01:39      1.14    0.65    1.00
  WS02004402WS02004403 CONDUIT    897.01     0  01:39      1.14    1.29    1.00
  WS02004139WS02001211 CONDUIT    373.50     0  04:00      0.69    0.47    0.58
  WS02004138WS02004139 CONDUIT    379.33     0  04:00      2.94    0.08    0.43
  WS02003067WS02003066 CONDUIT    896.51     0  01:40      1.61    0.29    0.49
  WS02001213WS02003059 CONDUIT    370.67     0  05:01      0.64    0.61    0.81
  WS02001212WS02001213 CONDUIT    373.33     0  05:01      1.21    0.58    0.49
  WS02001211WS02001212 CONDUIT    375.61     0  04:01      0.75    0.29    0.63
  WS02003072WS02003073 CONDUIT   1181.76     0  01:44      1.88    2.55    0.54
  WS02003069WS02003072 CONDUIT   1181.63     0  01:44      1.75    0.57    0.58
  WS02003060WS02003069 CONDUIT   1181.70     0  01:43      1.97    0.46    0.52
  WS02003059WS02003060 CONDUIT    369.88     0  03:33      0.77    0.24    0.72
  HS02004901HS02004770 CONDUIT     40.98     0  01:33      0.10    0.15    0.57
  HS02004876HS02004881 CONDUIT    157.88     0  01:36      1.33    1.68    0.17
  HS02004870HS02004876 CONDUIT    127.61     0  01:36      0.90    0.08    0.20
  HS02004842HS02004848 CONDUIT     18.52     0  01:51      0.08    0.01    0.35
  HS02004837HS02004842 CONDUIT     18.98     0  01:52      0.41    0.01    0.36
  HS02004830HS02004837 CONDUIT     74.30     0  01:37      0.68    0.07    0.16
  HS02004824HS02004830 CONDUIT     75.04     0  01:38      0.62    0.10    0.21
  HS02004817HS02004824 CONDUIT    150.26     0  01:40      0.35    0.07    0.62
  HS02004770HS02004777 CONDUIT    211.13     0  01:32      0.52    0.39    0.58
  HS02004799HS02004480 CONDUIT    525.37     0  01:34      1.14    0.66    0.66
  HS02004792HS02004799 CONDUIT    478.53     0  01:33      1.27    0.29    0.54
  HS02004788HS02004792 CONDUIT    277.00     0  01:34      1.34    0.18    0.30
  HS02004785HS02004788 CONDUIT    210.87     0  01:34      0.96    1.59    0.31
  HS02004777HS02004785 CONDUIT    210.79     0  01:33      0.62    0.26    0.49
  HS02004480HS02004478 CONDUIT    623.55     0  01:34      1.66    2.63    0.54
  HS02004479HS02004480 CONDUIT     98.64     0  01:35      0.34    0.10    0.63
  HS02004862HS02004870 CONDUIT     96.84     0  01:37      0.86    0.10    0.16
  HS02004848HS02004852 CONDUIT     45.39     0  01:37      0.56    0.05    0.12
  HS02004856HS02004862 CONDUIT     68.36     0  01:37      0.64    0.07    0.15
  HS02004852HS02004856 CONDUIT     45.48     0  01:38      0.37    0.05    0.18
  HS02004802HS02004478 CONDUIT    205.92     0  01:40      0.56    0.18    0.54
  HS02004478WS02006287 CONDUIT    821.18     0  01:36      2.26    0.23    0.40
  HS02004817HS02004807 CONDUIT    151.34     0  01:40      0.28    0.09    0.79
  HS02004807HS02004802 CONDUIT    204.81     0  01:39      0.50    0.39    0.59
  YS02001759YS02001757 CONDUIT    891.39     0  01:50      1.13    0.63    1.00
  YS02001762YS02001759 CONDUIT    365.07     0  01:45      0.46    0.42    1.00
  YS02001765YS02001762 CONDUIT    364.92     0  01:45      0.46    0.34    1.00
  YS02001770YS02001767 CONDUIT    364.60     0  01:45      0.49    1.44    1.00
  YS02001774YS02001770 CONDUIT    851.17     0  03:01      1.08    0.54    1.00
  YS02001779YS02001774 CONDUIT    851.17     0  03:01      1.08    0.43    1.00
  YS02001649YS02001757 CONDUIT    891.93     0  01:47      1.14    0.54    1.00
  YS02001767YS02001765 CONDUIT    365.24     0  01:45      0.47    0.46    1.00
  YS02006561YS02001783 CONDUIT   1146.53     0  01:41      2.28    0.59    1.00
  YS02001783YS02001784 CONDUIT   1146.77     0  01:41      2.28    1.58    1.00
  YS02001784YS02001785 CONDUIT   1147.60     0  01:41      2.28    2.67    1.00
  YS02001788YS02001790 CONDUIT   1157.14     0  01:39      2.69    0.85    1.00
  YS02001790YS02001791 CONDUIT   1261.00     0  01:39      3.39    1.37    1.00
  YS02001791YS02001793 CONDUIT   1218.61     0  01:40      6.58    0.52    1.00
  YS02001910YS02001907 CONDUIT    868.12     0  03:01      1.11    0.49    1.00
  YS02001786YS02001788 CONDUIT   1148.47     0  01:41      2.46    2.21    1.00
  YS02001915YS02001910 CONDUIT    868.05     0  03:01      1.11    0.43    1.00
  YS02001918YS02001915 CONDUIT    356.67     0  01:39      0.54    0.20    1.00
  YS02001923YS02001920 CONDUIT    353.27     0  01:39      0.88    0.16    1.00
  YS02001926YS02001923 CONDUIT    333.58     0  03:01      0.95    0.48    1.00
  YS02001929YS02001926 CONDUIT    330.51     0  03:01      1.03    0.16    0.95
  YS02001920YS02001918 CONDUIT    356.35     0  01:39      0.84    0.34    1.00
  YS02001629YS02163301 CONDUIT    297.55     0  01:30      0.38    0.37    1.00
  YS02001619YS02001622 CONDUIT    541.60     0  03:01      0.90    0.80    1.00
  YS02001622YS02001625 CONDUIT    541.66     0  03:01      0.69    0.29    1.00
  YS02001625YS02001629 CONDUIT    306.82     0  01:30      0.45    0.15    1.00
  YS02163301YS02001633 CONDUIT    314.53     0  01:30      0.40    0.30    1.00
  YS02163601YS02164001 CONDUIT    450.62     0  01:32      0.57    0.40    1.00
  YS02164001YS02001641 CONDUIT    450.73     0  01:32      0.57    0.62    1.00
  YS02001641YS02001644 CONDUIT    451.17     0  01:32      0.57    1.46    1.00
  YS02001647YS02001649 CONDUIT    846.70     0  03:17      1.08    0.45    1.00
  YS02006553YS02006556 CONDUIT    700.00     0  03:51      0.89    0.60    1.00
  YS02006556YS02006558 CONDUIT    700.41     0  03:51      0.89    0.55    1.00
  YSB6556YSB1171       CONDUIT     54.78     0  01:36      0.16    0.06    0.86
  YS02001907YS02006553 CONDUIT    699.79     0  03:51      0.78    0.82    1.00
  YS02006558YS02006561 CONDUIT   1146.50     0  01:41      4.05    2.53    1.00
  YS02001633YS02163601 CONDUIT    450.20     0  01:32      0.57    0.47    1.00
  YS02001644YS02001647 CONDUIT    846.70     0  03:17      1.08    0.50    1.00
  YS02001745YS02001748 CONDUIT    636.26     0  03:01      1.91    0.24    1.00
  YS02001748YS02001751 CONDUIT    636.34     0  03:01      1.45    0.32    1.00
  YS02001751YS02001754 CONDUIT    636.38     0  03:01      1.17    0.31    1.00
  YS02001754YS02001757 CONDUIT    636.68     0  03:01      0.81    0.26    1.00
  YS02001882YS02001884 CONDUIT     44.19     0  01:34      0.18    0.05    1.00
  YS02001884YS02001887 CONDUIT     53.49     0  01:32      0.14    0.07    1.00
  YS02001890YS02001895 CONDUIT    570.21     0  01:38      0.73    0.27    1.00
  YS02001895YS02001898 CONDUIT    570.44     0  01:38      0.73    0.99    1.00
  YS02001898YS02001901 CONDUIT    571.08     0  01:38      0.73    0.37    1.00
  YS02001901YS02001904 CONDUIT    570.73     0  01:38      0.73    0.89    1.00
  YS02001904YS02001907 CONDUIT    571.26     0  01:38      0.73    0.20    1.00
  YS02001887YS02001890 CONDUIT    787.88     0  03:01      1.00    1.35    1.00
  YS02001652YS02001649 CONDUIT    607.55     0  03:01      0.77    0.30    1.00
  YS02001655YS02001652 CONDUIT    607.55     0  03:01      1.26    0.30    1.00
  YS02001658YS02001655 CONDUIT    607.38     0  03:01      1.67    0.26    1.00
  YS02001661YS02001658 CONDUIT    607.37     0  03:01      2.02    0.24    1.00
  YS02001664YS02001661 CONDUIT    808.89     0  01:50      1.90    0.25    0.88
  YSB1154YSB6556       CONDUIT     54.37     0  01:35      0.17    0.10    0.79
  YSB1174YSB1171       CONDUIT     45.34     0  01:31      0.13    0.07    0.90
  YSB1171HS02004479    CONDUIT     98.35     0  01:34      0.54    0.07    0.73
  HS02004881HS02006253 CONDUIT    174.50     0  01:36      2.50    0.03    0.54
  YS02001793JiankangQianchi CONDUIT   1201.25     0  01:38     16.07    0.10    1.00
  YS02001757CaochengTiaoxuchi CONDUIT   2174.95     0  01:49      3.85    0.96    1.00
  WSF200WS02003060     CONDUIT    896.34     0  01:40      2.26    0.20    0.42
  1                    CONDUIT   1184.12     0  01:45      3.48    0.41    0.45
  2                    CONDUIT    447.96     0  01:34      6.74    1.07    1.00
  3                    CONDUIT    635.72     0  01:30     10.12    1.01    0.92
  4                    CONDUIT      0.00     0  00:00      0.00    0.00    0.00
  CC-Pump-1            PUMP       200.00     0  01:27              1.00
  CC-Pump-2            PUMP       200.00     0  01:30              1.00
  JK-Pump-1            PUMP       300.00     0  00:00              1.00
  JK-Pump-2            PUMP       300.00     0  00:00              1.00
  XR-Pump-1            PUMP        95.00     0  00:00              1.00
  XR-Pump-2            PUMP        95.00     0  00:50              1.00
  XR-Pump-3            PUMP        95.00     0  01:10              1.00
  XR-Pump-4            PUMP        95.00     0  00:00              1.00
  
  
  ***************************
  Flow Classification Summary
  ***************************
  
  -------------------------------------------------------------------------------------
                      Adjusted    ---------- Fraction of Time in Flow Class ---------- 
                       /Actual         Up    Down  Sub   Sup   Up    Down  Norm  Inlet 
  Conduit               Length    Dry  Dry   Dry   Crit  Crit  Crit  Crit  Ltd   Ctrl  
  -------------------------------------------------------------------------------------
  WS02003066WSF200        1.00   0.06  0.00  0.00  0.00  0.94  0.00  0.00  0.55  0.00
  WS02006287WS02006284    1.00   0.03  0.01  0.00  0.54  0.43  0.00  0.00  0.61  0.00
  WS02006284WS02006280    1.00   0.03  0.00  0.00  0.00  0.00  0.00  0.97  0.00  0.00
  WS02006280WS02006229    1.00   0.03  0.00  0.00  0.00  0.05  0.00  0.91  0.00  0.00
  WS02006229WS02006228    1.00   0.00  0.00  0.00  0.99  0.00  0.00  0.01  0.00  0.00
  WS02006256WS02006235    1.00   0.00  0.00  0.00  1.00  0.00  0.00  0.00  0.00  0.00
  WS02006253WS02006251    1.00   0.02  0.01  0.00  0.97  0.00  0.00  0.00  0.00  0.00
  WS02006252WS02006251    1.00   0.04  0.00  0.00  0.00  0.00  0.96  0.00  0.00  0.00
  WS02006251WS02006249    1.00   0.00  0.00  0.00  1.00  0.00  0.00  0.00  0.14  0.00
  WS02006249WS02006248    1.00   0.00  0.01  0.00  0.96  0.00  0.03  0.00  0.00  0.00
  WS02006248WS02006247    1.00   0.02  0.00  0.00  0.98  0.00  0.00  0.01  0.02  0.00
  WS02006247WS02006245    1.00   0.02  0.00  0.00  0.97  0.00  0.00  0.02  0.00  0.00
  WS02006245WS02006243    1.00   0.01  0.00  0.00  0.96  0.00  0.00  0.02  0.02  0.00
  WS02006243WS02006242    1.00   0.01  0.00  0.00  0.99  0.00  0.00  0.00  0.15  0.00
  WS02006242WS02006240    1.00   0.00  0.00  0.00  0.99  0.00  0.00  0.00  0.00  0.00
  WS02006240WS02006239    1.00   0.00  0.00  0.00  0.97  0.00  0.00  0.02  0.02  0.00
  WS02006239WS02006238    1.00   0.00  0.00  0.00  1.00  0.00  0.00  0.00  0.00  0.00
  WS02006238WS02006235    1.00   0.00  0.00  0.00  1.00  0.00  0.00  0.00  0.00  0.00
  WS02006235WS02006234    1.00   0.00  0.00  0.00  0.97  0.00  0.03  0.00  0.00  0.00
  WS02006234WS02006232    1.00   0.00  0.00  0.00  1.00  0.00  0.00  0.00  0.00  0.00
  WS02006232WS02006231    1.00   0.00  0.00  0.00  0.99  0.00  0.01  0.00  0.00  0.00
  WS02006231WS02006230    1.00   0.00  0.00  0.00  0.73  0.00  0.27  0.00  0.00  0.00
  WS02006230WS02006229    1.00   0.00  0.00  0.00  0.99  0.00  0.00  0.01  0.01  0.00
  WS02006228WS02006109    1.00   0.00  0.00  0.00  1.00  0.00  0.00  0.00  0.00  0.00
  WS02006116WS02004401    1.00   0.02  0.00  0.00  0.98  0.00  0.00  0.00  0.00  0.00
  WS02006115WS02006116    1.00   0.02  0.00  0.00  0.97  0.00  0.00  0.01  0.01  0.00
  WS02006113WS02006111    1.00   0.01  0.00  0.00  0.12  0.87  0.00  0.00  0.09  0.00
  WS02006112WS02006115    1.00   0.02  0.00  0.00  0.98  0.00  0.00  0.00  0.00  0.00
  WS02006111WS02006112    1.00   0.02  0.00  0.00  0.98  0.00  0.00  0.00  0.75  0.00
  WS02006110WS02006113    1.00   0.01  0.00  0.00  0.99  0.00  0.00  0.00  0.00  0.00
  WS02006109WS02006110    1.00   0.00  0.01  0.00  0.99  0.00  0.00  0.00  0.00  0.00
  WS02004411WS02004412    1.00   0.04  0.00  0.00  0.96  0.00  0.00  0.00  0.00  0.00
  WS02004401WS02004402    1.00   0.02  0.00  0.00  0.98  0.00  0.00  0.00  0.00  0.00
  WS02004413WS02003067    1.00   0.04  0.01  0.00  0.00  0.00  0.94  0.00  0.00  0.00
  WS02004412WS02004413    1.00   0.04  0.00  0.00  0.95  0.00  0.00  0.00  0.00  0.00
  WS02004410WS02004411    1.00   0.04  0.00  0.00  0.96  0.00  0.00  0.00  0.00  0.00
  WS02004409WS02004410    1.00   0.04  0.00  0.00  0.96  0.00  0.00  0.00  0.00  0.00
  WS02004407WS02004409    1.00   0.04  0.00  0.00  0.94  0.02  0.00  0.00  0.80  0.00
  WS02004406WS02004407    1.00   0.00  0.04  0.00  0.96  0.00  0.00  0.00  0.00  0.00
  WS02004405WS02004406    1.00   0.00  0.00  0.00  1.00  0.00  0.00  0.00  0.02  0.00
  WS02004404WS02004405    1.00   0.00  0.00  0.00  1.00  0.00  0.00  0.00  0.00  0.00
  WS02004403WS02004404    1.00   0.00  0.02  0.00  0.98  0.00  0.00  0.00  0.02  0.00
  WS02004402WS02004403    1.00   0.02  0.00  0.00  0.98  0.00  0.00  0.00  0.00  0.00
  WS02004139WS02001211    1.00   0.00  0.00  0.00  0.99  0.00  0.01  0.00  0.00  0.00
  WS02004138WS02004139    1.00   0.00  0.00  0.00  0.99  0.01  0.00  0.00  1.00  0.00
  WS02003067WS02003066    1.00   0.06  0.00  0.00  0.94  0.00  0.00  0.00  0.00  0.00
  WS02001213WS02003059    1.00   0.00  0.00  0.00  0.99  0.00  0.00  0.00  0.00  0.00
  WS02001212WS02001213    1.00   0.01  0.00  0.00  0.92  0.00  0.08  0.00  0.00  0.00
  WS02001211WS02001212    1.00   0.00  0.01  0.00  0.99  0.00  0.00  0.00  0.00  0.00
  WS02003072WS02003073    1.00   0.00  0.00  0.00  0.00  0.00  0.00  1.00  0.00  0.00
  WS02003069WS02003072    1.00   0.00  0.00  0.00  0.99  0.01  0.00  0.00  0.19  0.00
  WS02003060WS02003069    1.00   0.00  0.00  0.00  0.98  0.02  0.00  0.00  0.16  0.00
  WS02003059WS02003060    1.00   0.00  0.00  0.00  1.00  0.00  0.00  0.00  0.01  0.00
  HS02004901HS02004770    1.00   0.03  0.00  0.00  0.97  0.00  0.00  0.00  0.00  0.00
  HS02004876HS02004881    1.00   0.02  0.00  0.00  0.70  0.28  0.00  0.00  0.00  0.00
  HS02004870HS02004876    1.00   0.01  0.00  0.00  0.99  0.00  0.00  0.00  0.95  0.00
  HS02004842HS02004848    1.00   0.00  0.03  0.00  0.97  0.00  0.00  0.00  0.54  0.00
  HS02004837HS02004842    1.00   0.00  0.00  0.00  0.99  0.01  0.00  0.00  0.11  0.00
  HS02004830HS02004837    1.00   0.00  0.00  0.00  1.00  0.00  0.00  0.00  0.99  0.00
  HS02004824HS02004830    1.00   0.00  0.00  0.00  1.00  0.00  0.00  0.00  0.03  0.00
  HS02004817HS02004824    1.00   0.00  0.00  0.00  1.00  0.00  0.00  0.00  0.88  0.00
  HS02004770HS02004777    1.00   0.00  0.03  0.00  0.97  0.00  0.00  0.00  0.02  0.00
  HS02004799HS02004480    1.00   0.00  0.01  0.00  0.96  0.00  0.02  0.00  0.00  0.00
  HS02004792HS02004799    1.00   0.00  0.00  0.00  0.99  0.01  0.00  0.00  0.98  0.00
  HS02004788HS02004792    1.00   0.00  0.00  0.00  0.99  0.01  0.00  0.00  0.98  0.00
  HS02004785HS02004788    1.00   0.00  0.00  0.00  1.00  0.00  0.00  0.00  0.00  0.00
  HS02004777HS02004785    1.00   0.00  0.00  0.00  1.00  0.00  0.00  0.00  0.11  0.00
  HS02004480HS02004478    1.00   0.03  0.00  0.00  0.59  0.00  0.00  0.37  0.00  0.00
  HS02004479HS02004480    1.00   0.02  0.00  0.00  0.98  0.00  0.00  0.00  0.11  0.00
  HS02004862HS02004870    1.00   0.00  0.00  0.00  1.00  0.00  0.00  0.00  0.02  0.00
  HS02004848HS02004852    1.00   0.03  0.00  0.00  0.97  0.00  0.00  0.00  0.81  0.00
  HS02004856HS02004862    1.00   0.00  0.04  0.00  0.96  0.00  0.00  0.00  0.84  0.00
  HS02004852HS02004856    1.00   0.03  0.00  0.00  0.97  0.00  0.00  0.00  0.70  0.00
  HS02004802HS02004478    1.00   0.03  0.00  0.00  0.97  0.00  0.00  0.00  0.02  0.00
  HS02004478WS02006287    1.00   0.04  0.00  0.00  0.64  0.32  0.00  0.00  0.58  0.00
  HS02004817HS02004807    1.00   0.00  0.03  0.00  0.97  0.00  0.00  0.00  0.01  0.00
  HS02004807HS02004802    1.00   0.03  0.00  0.00  0.97  0.00  0.00  0.00  0.00  0.00
  YS02001759YS02001757    1.00   0.00  0.00  0.00  1.00  0.00  0.00  0.00  0.15  0.00
  YS02001762YS02001759    1.00   0.00  0.00  0.00  1.00  0.00  0.00  0.00  0.02  0.00
  YS02001765YS02001762    1.00   0.00  0.00  0.00  1.00  0.00  0.00  0.00  0.13  0.00
  YS02001770YS02001767    1.00   0.00  0.00  0.00  1.00  0.00  0.00  0.00  0.00  0.00
  YS02001774YS02001770    1.00   0.00  0.03  0.00  0.97  0.00  0.00  0.00  0.02  0.00
  YS02001779YS02001774    1.00   0.00  0.00  0.00  1.00  0.00  0.00  0.00  0.16  0.00
  YS02001649YS02001757    1.00   0.00  0.00  0.00  1.00  0.00  0.00  0.00  0.15  0.00
  YS02001767YS02001765    1.00   0.00  0.00  0.00  1.00  0.00  0.00  0.00  0.00  0.00
  YS02006561YS02001783    1.00   0.04  0.00  0.00  0.64  0.32  0.00  0.00  0.43  0.00
  YS02001783YS02001784    1.00   0.00  0.04  0.00  0.96  0.00  0.00  0.00  0.00  0.00
  YS02001784YS02001785    1.00   0.00  0.00  0.00  1.00  0.00  0.00  0.00  0.16  0.00
  YS02001788YS02001790    1.00   0.00  0.00  0.00  0.66  0.34  0.00  0.00  0.34  0.00
  YS02001790YS02001791    1.00   0.00  0.00  0.00  0.64  0.36  0.00  0.00  0.27  0.00
  YS02001791YS02001793    1.00   0.00  0.00  0.00  0.66  0.34  0.00  0.00  0.03  0.00
  YS02001910YS02001907    1.00   0.00  0.00  0.00  0.98  0.00  0.00  0.02  0.12  0.00
  YS02001786YS02001788    1.00   0.00  0.00  0.00  0.68  0.32  0.00  0.00  0.00  0.00
  YS02001915YS02001910    1.00   0.00  0.00  0.00  1.00  0.00  0.00  0.00  0.13  0.00
  YS02001918YS02001915    1.00   0.00  0.01  0.00  0.99  0.00  0.00  0.00  0.45  0.00
  YS02001923YS02001920    1.00   0.00  0.00  0.00  1.00  0.00  0.00  0.00  0.64  0.00
  YS02001926YS02001923    1.00   0.00  0.02  0.00  0.40  0.00  0.58  0.00  0.00  0.00
  YS02001929YS02001926    1.00   0.00  0.03  0.00  0.97  0.00  0.00  0.00  0.56  0.00
  YS02001920YS02001918    1.00   0.00  0.01  0.00  0.99  0.00  0.00  0.00  0.00  0.00
  YS02001629YS02163301    1.00   0.03  0.00  0.00  0.96  0.00  0.00  0.00  0.00  0.00
  YS02001619YS02001622    1.00   0.03  0.00  0.00  0.97  0.00  0.00  0.00  0.00  0.00
  YS02001622YS02001625    1.00   0.03  0.00  0.00  0.97  0.00  0.00  0.00  0.03  0.00
  YS02001625YS02001629    1.00   0.03  0.01  0.00  0.96  0.00  0.01  0.00  0.00  0.00
  YS02163301YS02001633    1.00   0.00  0.03  0.00  0.97  0.00  0.00  0.00  0.00  0.00
  YS02163601YS02164001    1.00   0.00  0.02  0.00  0.98  0.00  0.00  0.00  0.00  0.00
  YS02164001YS02001641    1.00   0.01  0.01  0.00  0.98  0.00  0.00  0.00  0.06  0.00
  YS02001641YS02001644    1.00   0.00  0.01  0.00  0.99  0.00  0.00  0.00  0.00  0.00
  YS02001647YS02001649    1.00   0.00  0.03  0.00  0.96  0.00  0.00  0.00  0.01  0.00
  YS02006553YS02006556    1.00   0.01  0.00  0.00  0.99  0.00  0.00  0.00  0.03  0.00
  YS02006556YS02006558    1.00   0.00  0.00  0.00  1.00  0.00  0.00  0.00  0.00  0.00
  YSB6556YSB1171          1.00   0.02  0.01  0.00  0.97  0.00  0.00  0.00  0.00  0.00
  YS02001907YS02006553    1.00   0.00  0.01  0.00  0.98  0.00  0.00  0.00  0.00  0.00
  YS02006558YS02006561    1.00   0.04  0.00  0.00  0.43  0.54  0.00  0.00  0.35  0.00
  YS02001633YS02163601    1.00   0.00  0.01  0.00  0.99  0.00  0.00  0.00  0.15  0.00
  YS02001644YS02001647    1.00   0.00  0.04  0.00  0.96  0.00  0.00  0.00  0.00  0.00
  YS02001745YS02001748    1.00   0.00  0.00  0.00  0.94  0.00  0.00  0.05  0.00  0.00
  YS02001748YS02001751    1.00   0.00  0.00  0.00  0.99  0.01  0.00  0.00  0.13  0.00
  YS02001751YS02001754    1.00   0.00  0.00  0.00  0.96  0.00  0.00  0.04  0.01  0.00
  YS02001754YS02001757    1.00   0.00  0.00  0.00  0.99  0.01  0.00  0.00  0.16  0.00
  YS02001882YS02001884    1.00   0.03  0.00  0.00  0.97  0.00  0.00  0.00  0.00  0.00
  YS02001884YS02001887    1.00   0.02  0.01  0.00  0.97  0.00  0.00  0.00  0.00  0.00
  YS02001890YS02001895    1.00   0.00  0.03  0.00  0.96  0.00  0.00  0.00  0.00  0.00
  YS02001895YS02001898    1.00   0.04  0.00  0.00  0.96  0.00  0.00  0.00  0.00  0.00
  YS02001898YS02001901    1.00   0.04  0.00  0.00  0.96  0.00  0.00  0.00  0.00  0.00
  YS02001901YS02001904    1.00   0.04  0.00  0.00  0.96  0.00  0.00  0.00  0.00  0.00
  YS02001904YS02001907    1.00   0.00  0.03  0.00  0.96  0.00  0.00  0.00  0.00  0.00
  YS02001887YS02001890    1.00   0.00  0.00  0.00  0.98  0.00  0.01  0.00  0.00  0.00
  YS02001652YS02001649    1.00   0.00  0.00  0.00  1.00  0.00  0.00  0.00  0.15  0.00
  YS02001655YS02001652    1.00   0.00  0.00  0.00  0.96  0.00  0.00  0.04  0.01  0.00
  YS02001658YS02001655    1.00   0.00  0.03  0.00  0.95  0.01  0.00  0.00  0.01  0.00
  YS02001661YS02001658    1.00   0.03  0.00  0.00  0.94  0.02  0.00  0.00  0.00  0.00
  YS02001664YS02001661    1.00   0.03  0.00  0.00  0.94  0.03  0.00  0.00  0.07  0.00
  YSB1154YSB6556          1.00   0.03  0.00  0.00  0.97  0.00  0.00  0.00  0.01  0.00
  YSB1174YSB1171          1.00   0.02  0.01  0.00  0.97  0.00  0.00  0.00  0.00  0.00
  YSB1171HS02004479       1.00   0.02  0.00  0.00  0.98  0.00  0.00  0.00  0.10  0.00
  HS02004881HS02006253    1.00   0.02  0.00  0.00  0.91  0.00  0.00  0.07  0.77  0.00
  YS02001793JiankangQianchi    1.00   0.00  0.00  0.00  0.82  0.18  0.00  0.00  0.14  0.00
  YS02001757CaochengTiaoxuchi    1.00   0.00  0.04  0.00  0.90  0.06  0.00  0.00  0.00  0.00
  WSF200WS02003060        1.00   0.00  0.06  0.00  0.37  0.57  0.00  0.00  0.06  0.00
  1                       1.00   0.00  0.00  0.00  0.00  1.00  0.00  0.00  0.39  0.00
  2                       1.00   0.40  0.00  0.00  0.02  0.58  0.00  0.00  0.14  0.00
  3                       1.00   0.12  0.00  0.00  0.00  0.88  0.00  0.00  0.04  0.00
  4                       1.00   1.00  0.00  0.00  0.00  0.00  0.00  0.00  0.00  0.00
  
  
  *************************
  Conduit Surcharge Summary
  *************************
  
  ----------------------------------------------------------------------------
                                                           Hours        Hours 
                         --------- Hours Full --------   Above Full   Capacity
  Conduit                Both Ends  Upstream  Dnstream   Normal Flow   Limited
  ----------------------------------------------------------------------------
  WS02006229WS02006228        3.44      3.68      3.44      5.85         3.44
  WS02006256WS02006235        6.44      6.44      7.69      2.21         0.10
  WS02006253WS02006251        0.24      0.24      0.34      0.01         0.01
  WS02006252WS02006251        1.66      1.66      2.77      2.49         0.01
  WS02006251WS02006249        0.22      0.26      0.22      1.93         0.22
  WS02006249WS02006248        0.20      0.21      0.22      5.30         0.01
  WS02006248WS02006247        0.23      0.23      0.36      0.01         0.01
  WS02006247WS02006245        0.40      0.50      0.40      5.90         0.24
  WS02006245WS02006243        0.48      0.48      1.47      0.04         0.01
  WS02006243WS02006242        1.70      1.70      3.03      0.01         0.01
  WS02006242WS02006240        1.98      1.98      3.41      2.38         0.01
  WS02006240WS02006239        2.26      2.26      2.44      0.20         0.01
  WS02006239WS02006238        3.23      3.24      3.35      0.31         0.15
  WS02006238WS02006235        3.19      3.19      3.62      0.01         0.02
  WS02006235WS02006234        2.00      2.00      3.00      6.07         0.15
  WS02006234WS02006232        2.31      2.31      3.73      0.01         0.01
  WS02006232WS02006231        1.82      1.82      3.73      0.01         0.01
  WS02006231WS02006230        1.75      1.75      1.85      6.19         0.12
  WS02006230WS02006229        4.34      5.50      4.34      6.50         4.19
  WS02006228WS02006109        3.56      4.03      3.56      6.41         3.56
  WS02006116WS02004401        1.26      1.26      1.29      0.92         0.89
  WS02006115WS02006116        0.71      0.72      0.74      0.51         0.49
  WS02006113WS02006111        0.03      0.06      0.03      0.21         0.03
  WS02006112WS02006115        0.63      0.63      2.04      0.01         0.01
  WS02006111WS02006112        0.01      0.01      6.01      0.01         0.01
  WS02006110WS02006113        0.06      0.06      3.86      0.01         0.01
  WS02006109WS02006110        1.94      1.94      4.03      1.95         0.01
  WS02004411WS02004412        0.01      0.01      0.01      1.13         0.01
  WS02004401WS02004402        1.29      1.29      1.52      0.26         0.26
  WS02004413WS02003067        0.01      0.01      0.12      0.01         0.01
  WS02004412WS02004413        0.01      0.01      0.12      0.01         0.01
  WS02004410WS02004411        0.01      0.01      0.01      0.86         0.01
  WS02004409WS02004410        0.01      0.01      0.01      0.54         0.01
  WS02004406WS02004407        0.01      0.01      1.72      0.01         0.01
  WS02004405WS02004406        1.72      1.75      1.72      1.99         1.72
  WS02004404WS02004405        1.75      1.77      1.75      6.42         1.74
  WS02004403WS02004404        1.61      1.61      1.77      0.01         0.01
  WS02004402WS02004403        1.52      1.52      1.61      1.20         1.20
  WS02003072WS02003073        0.01      0.01      0.01      5.71         0.01
  HS02004876HS02004881        0.01      0.01      0.01      0.86         0.01
  HS02004817HS02004824        0.01      0.01      0.32      0.01         0.01
  HS02004785HS02004788        0.01      0.01      0.01      0.81         0.01
  HS02004480HS02004478        0.01      0.01      0.01      1.81         0.01
  HS02004817HS02004807        0.01      0.01      0.32      0.01         0.01
  YS02001759YS02001757        6.34      6.34      6.36      0.01         0.01
  YS02001762YS02001759        6.34      6.34      6.34      0.01         0.01
  YS02001765YS02001762        6.33      6.33      6.34      0.01         0.01
  YS02001770YS02001767        6.33      6.33      6.33      1.12         0.59
  YS02001774YS02001770        6.33      6.33      6.34      0.01         0.01
  YS02001779YS02001774        6.31      6.31      6.34      0.01         0.01
  YS02001649YS02001757        6.34      6.34      6.36      0.01         0.01
  YS02001767YS02001765        6.33      6.33      6.33      0.01         0.01
  YS02006561YS02001783        2.42      2.42      2.92      0.01         0.01
  YS02001783YS02001784        2.92      2.92      3.02      2.80         2.74
  YS02001784YS02001785        2.87      3.02      2.87      3.52         2.87
  YS02001788YS02001790        2.79      2.79      4.06      0.01         0.01
  YS02001790YS02001791        4.06      4.06      4.09      2.33         2.22
  YS02001791YS02001793        4.09      4.09      4.25      0.01         0.01
  YS02001910YS02001907        2.74      2.74      3.05      0.01         0.01
  YS02001786YS02001788        2.79      2.87      2.79      3.18         2.79
  YS02001915YS02001910        2.56      2.56      2.74      0.01         0.01
  YS02001918YS02001915        2.33      2.33      2.56      0.01         0.01
  YS02001923YS02001920        2.16      2.16      2.37      0.01         0.01
  YS02001926YS02001923        0.01      0.01      0.01      0.01         0.01
  YS02001929YS02001926        0.01      0.01      0.01      0.01         0.01
  YS02001920YS02001918        2.33      2.33      2.37      0.01         0.01
  YS02001629YS02163301        6.33      6.33      6.33      0.01         0.01
  YS02001619YS02001622        6.31      6.31      6.31      0.01         0.01
  YS02001622YS02001625        6.31      6.31      6.32      0.01         0.01
  YS02001625YS02001629        6.31      6.31      6.32      0.01         0.01
  YS02163301YS02001633        6.33      6.33      6.33      0.01         0.01
  YS02163601YS02164001        6.33      6.33      6.34      0.01         0.01
  YS02164001YS02001641        6.33      6.33      6.33      0.01         0.02
  YS02001641YS02001644        6.33      6.33      6.34      3.05         3.10
  YS02001647YS02001649        6.32      6.32      6.34      0.01         0.01
  YS02006553YS02006556        2.90      2.90      3.09      0.01         0.01
  YS02006556YS02006558        2.96      2.96      3.14      0.01         0.01
  YSB6556YSB1171              0.01      0.01      0.43      0.01         0.01
  YS02001907YS02006553        3.53      3.53      3.72      0.01         0.01
  YS02006558YS02006561        2.60      2.88      2.60      3.40         2.60
  YS02001633YS02163601        6.33      6.33      6.34      0.01         0.01
  YS02001644YS02001647        6.32      6.32      6.34      0.01         0.01
  YS02001745YS02001748        0.52      0.52      6.28      0.01         0.01
  YS02001748YS02001751        6.29      6.29      6.30      0.01         0.01
  YS02001751YS02001754        6.30      6.30      6.31      0.01         0.01
  YS02001754YS02001757        6.31      6.31      6.36      0.01         0.01
  YS02001882YS02001884        2.57      2.57      2.60      0.01         0.01
  YS02001884YS02001887        2.65      2.65      2.67      0.01         0.01
  YS02001890YS02001895        2.54      2.54      2.76      0.01         0.01
  YS02001895YS02001898        2.53      2.53      2.54      0.01         0.01
  YS02001898YS02001901        2.55      2.55      2.64      0.01         0.01
  YS02001901YS02001904        2.62      2.62      2.64      0.01         0.01
  YS02001904YS02001907        2.62      2.62      3.11      0.01         0.01
  YS02001887YS02001890        2.70      2.70      2.72      1.55         0.01
  YS02001652YS02001649        6.32      6.32      6.34      0.01         0.01
  YS02001655YS02001652        6.30      6.30      6.31      0.01         0.01
  YS02001658YS02001655        6.29      6.29      6.30      0.01         0.01
  YS02001661YS02001658        1.09      1.09      6.29      0.01         0.01
  YS02001664YS02001661        0.01      0.01      2.59      0.01         0.01
  YSB1174YSB1171              0.01      0.01      0.16      0.01         0.01
  HS02004881HS02006253        0.01      0.01      0.06      0.01         0.01
  YS02001793JiankangQianchi        4.14      4.14      5.04      0.01         0.01
  YS02001757CaochengTiaoxuchi        5.84      5.84      6.36      0.01         0.01
  2                           0.10      0.10      0.15      0.15         0.10
  3                           0.01      0.01      0.01      0.01         0.01
  
  
  ***************
  Pumping Summary
  ***************
  
  ---------------------------------------------------------------------------------------------------------
                                                  Min       Avg       Max     Total     Power    % Time Off
                        Percent   Number of      Flow      Flow      Flow    Volume     Usage    Pump Curve
  Pump                 Utilized   Start-Ups       LPS       LPS       LPS  10^6 ltr     Kw-hr    Low   High
  ---------------------------------------------------------------------------------------------------------
  CC-Pump-1               77.58           3      0.00    153.50    200.00     3.401      3.94    0.0    4.6
  CC-Pump-2               58.44           5      0.00    150.70    200.00     2.496      3.21    0.0    6.1
  JK-Pump-1               78.72           9      0.00    186.90    300.00     3.380     26.21    0.0    0.0
  JK-Pump-2               76.59           6      0.00    192.53    300.00     3.244     27.91    0.0    0.0
  XR-Pump-1               74.46           7      0.00     73.45     95.00     1.511      8.50    0.0    0.0
  XR-Pump-2               80.84           5      0.00     70.02     95.00     1.539      8.06    0.0    0.0
  XR-Pump-3               65.94           8      0.00     67.25     95.00     1.282      6.24    0.0    0.0
  XR-Pump-4               68.08           9      0.00     65.73     95.00     1.254      6.89    0.0    0.0
  

  Analysis begun on:  Fri Jan  7 21:42:31 2022
  Analysis ended on:  Fri Jan  7 21:42:35 2022
  Total elapsed time: 00:00:04