
  EPA STORM WATER MANAGEMENT MODEL - VERSION 5.1 (Build 5.3.0.dev0)
  --------------------------------------------------------------

  WARNING 04: minimum elevation drop used for Conduit WS02004404WS02004405
  WARNING 03: negative offset ignored for Link YS02001904YS02001907
  
  *********************************************************
  NOTE: The summary statistics displayed in this report are
  based on results found at every computational time step,  
  not just on results from each reporting time step.
  *********************************************************
  
  ****************
  Analysis Options
  ****************
  Flow Units ............... LPS
  Process Models:
    Rainfall/Runoff ........ YES
    RDII ................... NO
    Snowmelt ............... NO
    Groundwater ............ NO
    Flow Routing ........... YES
    Ponding Allowed ........ NO
    Water Quality .......... NO
  Infiltration Method ...... HORTON
  Flow Routing Method ...... DYNWAVE
  Surcharge Method ......... EXTRAN
  Starting Date ............ 08/28/2015 08:00:00
  Ending Date .............. 08/28/2015 15:50:00
  Antecedent Dry Days ...... 8.0
  Report Time Step ......... 00:01:00
  Wet Time Step ............ 00:01:00
  Dry Time Step ............ 00:01:00
  Routing Time Step ........ 5.00 sec
  Variable Time Step ....... YES
  Maximum Trials ........... 8
  Number of Threads ........ 4
  Head Tolerance ........... 0.001500 m
  
  
  **************************        Volume         Depth
  Runoff Quantity Continuity     hectare-m            mm
  **************************     ---------       -------
  Total Precipitation ......        10.887        23.836
  Evaporation Loss .........         0.000         0.000
  Infiltration Loss ........         2.344         5.132
  Surface Runoff ...........         7.303        15.990
  Final Storage ............         1.241         2.717
  Continuity Error (%) .....        -0.012
  
  
  **************************        Volume        Volume
  Flow Routing Continuity        hectare-m      10^6 ltr
  **************************     ---------     ---------
  Dry Weather Inflow .......         0.616         6.165
  Wet Weather Inflow .......         7.302        73.016
  Groundwater Inflow .......         0.000         0.000
  RDII Inflow ..............         0.000         0.000
  External Inflow ..........         0.102         1.024
  External Outflow .........         2.372        23.716
  Flooding Loss ............         5.162        51.618
  Evaporation Loss .........         0.000         0.000
  Exfiltration Loss ........         0.000         0.000
  Initial Stored Volume ....         0.076         0.761
  Final Stored Volume ......         0.651         6.511
  Continuity Error (%) .....        -1.086
  
  
  *************************
  Highest Continuity Errors
  *************************
  Node HS02004842 (8.73%)
  Node YS02001884 (8.30%)
  Node JK-storage (-6.06%)
  Node HS02004817 (1.69%)
  Node YSB1171 (1.47%)
  
  
  ***************************
  Time-Step Critical Elements
  ***************************
  Link 3 (59.78%)
  Link WS02006252WS02006251 (33.52%)
  Link WS02006238WS02006235 (2.36%)
  
  
  ********************************
  Highest Flow Instability Indexes
  ********************************
  Link WS02006113WS02006111 (30)
  Link YS02163601YS02164001 (27)
  Link YS02001629YS02163301 (27)
  Link YS02163301YS02001633 (26)
  Link YS02001619YS02001622 (26)
  
  
  *************************
  Routing Time Step Summary
  *************************
  Minimum Time Step           :     0.50 sec
  Average Time Step           :     0.72 sec
  Maximum Time Step           :     5.00 sec
  Percent in Steady State     :    -0.00
  Average Iterations per Step :     3.70
  Percent Not Converging      :    12.38
  
  
  ***************************
  Subcatchment Runoff Summary
  ***************************
  
  ------------------------------------------------------------------------------------------------------------------------------
                            Total      Total      Total      Total     Imperv       Perv      Total       Total     Peak  Runoff
                           Precip      Runon       Evap      Infil     Runoff     Runoff     Runoff      Runoff   Runoff   Coeff
  Subcatchment                 mm         mm         mm         mm         mm         mm         mm    10^6 ltr      LPS
  ------------------------------------------------------------------------------------------------------------------------------
  sub0                      23.84       0.00       0.00       1.03      20.90       0.64      21.54        0.02     4.74   0.904
  sub1                      23.84       0.00       0.00       1.74      19.95       0.88      20.83        0.14    30.53   0.874
  sub2                      23.84       0.00       0.00       6.87      14.10       1.95      16.05        0.15    28.29   0.673
  sub3                      23.84       0.00       0.00       7.14      14.06       1.68      15.74        0.35    61.76   0.660
  sub4                      23.84       0.00       0.00       1.87      19.78       0.75      20.54        0.43    72.83   0.862
  sub5                      23.84       0.00       0.00       1.08      20.85       0.59      21.44        0.24    54.28   0.899
  sub7                      23.84       0.00       0.00       1.37      20.44       0.77      21.21        0.07    17.57   0.890
  sub8                      23.84       0.00       0.00       1.38      20.42       0.76      21.19        0.14    32.08   0.889
  sub9                      23.84       0.00       0.00       1.39      20.42       0.76      21.18        0.10    23.95   0.889
  sub10                     23.84       0.00       0.00       1.24      20.63       0.67      21.30        0.23    53.40   0.894
  sub11                     23.84       0.00       0.00       1.22      20.65       0.69      21.34        0.25    59.71   0.895
  sub12                     23.84       0.00       0.00       1.98      19.55       1.11      20.66        0.18    46.17   0.867
  sub14                     23.84       0.00       0.00       1.39      20.42       0.76      21.18        0.20    47.08   0.888
  sub15                     23.84       0.00       0.00       5.16      15.70       1.99      17.70        0.30    64.58   0.742
  sub16                     23.84       0.00       0.00       5.46      15.05       2.40      17.45        0.18    41.69   0.732
  sub17                     23.84       0.00       0.00       5.32      15.27       2.31      17.58        0.15    34.22   0.738
  sub22                     23.84       0.00       0.00       7.63      12.80       2.62      15.42        0.97   202.91   0.647
  sub23                     23.84       0.00       0.00       6.37      14.15       2.45      16.60        0.79   171.10   0.696
  sub60                     23.84       0.00       0.00       2.46      17.68       0.40      18.08        5.48   635.50   0.759
  sub61                     23.84       0.00       0.00       3.48      17.44       0.57      18.00        5.55   687.97   0.755
  sub62                     23.84       0.00       0.00       1.52      19.11       0.39      19.50        5.99   726.55   0.818
  sub63                     23.84       0.00       0.00       6.22      15.11       0.70      15.81        4.78   606.27   0.663
  sub64                     23.84       0.00       0.00       3.15      17.01       0.42      17.43        5.30   611.50   0.731
  sub65                     23.84       0.00       0.00       2.70      17.34       0.40      17.73        5.45   625.37   0.744
  sub66                     23.84       0.00       0.00       6.42      14.44       0.49      14.93        4.58   541.58   0.626
  sub67                     23.84       0.00       0.00       1.46      19.71       0.45      20.16        6.22   787.40   0.846
  sub68                     23.84       0.00       0.00       2.78      18.22       0.56      18.78        5.78   724.10   0.788
  sub69                     23.84       0.00       0.00       2.86      18.50       0.72      19.22        4.49   586.55   0.806
  sub70                     23.84      19.62       0.00       9.95      26.14       3.78      29.92        6.85   801.71   0.689
  sub71                     23.84       0.00       0.00       1.54      18.81       0.36      19.18        4.53   536.91   0.805
  sub72                     23.84       0.00       0.00       1.45      16.32       0.22      16.55        3.37   330.66   0.694
  sub73                     23.84      29.13       0.00       9.95      31.58       5.28      36.86        8.66   884.85   0.696
  sub74                     23.84       0.00       0.00      17.30       5.48       0.57       6.05        2.42   323.16   0.254
  
  
  ******************
  Node Depth Summary
  ******************
  
  ---------------------------------------------------------------------------------
                                 Average  Maximum  Maximum  Time of Max    Reported
                                   Depth    Depth      HGL   Occurrence   Max Depth
  Node                 Type       Meters   Meters   Meters  days hr:min      Meters
  ---------------------------------------------------------------------------------
  WS02001211           JUNCTION     0.62     0.77     5.61     0  03:41        0.77
  WS02001212           JUNCTION     0.36     0.49     5.55     0  02:01        0.49
  WS02001213           JUNCTION     0.61     0.76     5.53     0  02:01        0.76
  WS02003069           JUNCTION     0.45     0.63     5.22     0  02:02        0.63
  WS02003072           JUNCTION     0.52     0.68     5.06     0  02:03        0.68
  WS02003073           JUNCTION     0.31     0.42     4.49     0  02:03        0.42
  WS02003060           JUNCTION     0.40     0.56     5.49     0  02:02        0.56
  WS02003066           JUNCTION     0.26     0.37     5.93     0  01:38        0.37
  WS02003059           JUNCTION     0.67     0.83     5.51     0  02:01        0.83
  WS02003067           JUNCTION     0.61     0.81     6.13     0  01:36        0.81
  WS02004401           JUNCTION     0.77     1.38     7.38     0  01:32        1.31
  WS02004402           JUNCTION     0.79     1.35     7.31     0  01:31        1.18
  WS02004403           JUNCTION     0.81     1.27     7.20     0  01:31        1.16
  WS02004404           JUNCTION     0.88     1.32     7.17     0  01:32        1.21
  WS02004406           JUNCTION     0.87     1.64     7.47     0  01:31        1.15
  WS02004409           JUNCTION     0.57     0.92     6.69     0  01:38        0.92
  WS02004410           JUNCTION     0.58     0.91     6.63     0  01:38        0.91
  WS02004411           JUNCTION     0.59     0.90     6.58     0  01:38        0.90
  WS02004412           JUNCTION     0.60     0.88     6.52     0  01:38        0.88
  WS02004413           JUNCTION     0.76     1.00     6.47     0  01:38        1.00
  WS02004405           JUNCTION     0.87     1.37     7.22     0  01:31        1.19
  WS02006109           JUNCTION     0.86     1.48     8.10     0  01:35        1.45
  WS02006110           JUNCTION     0.82     1.29     7.88     0  01:35        1.29
  WS02006111           JUNCTION     0.29     0.80     7.50     0  01:34        0.79
  WS02006112           JUNCTION     0.96     1.88     7.76     0  01:31        1.49
  WS02006113           JUNCTION     0.40     0.80     7.69     0  01:34        0.79
  WS02006115           JUNCTION     0.67     1.98     8.12     0  01:31        1.16
  WS02006116           JUNCTION     0.75     1.82     7.86     0  01:31        1.22
  WS02006230           JUNCTION     0.87     2.03     8.77     0  01:29        1.63
  WS02006231           JUNCTION     0.60     1.70     8.83     0  01:29        1.27
  WS02006232           JUNCTION     0.73     1.90     8.94     0  01:29        1.35
  WS02006234           JUNCTION     0.65     1.96     9.12     0  01:29        1.24
  WS02006235           JUNCTION     0.67     2.00     9.16     0  01:29        1.23
  WS02006238           JUNCTION     0.70     2.06     9.21     0  01:29        1.25
  WS02006240           JUNCTION     0.59     2.10     9.39     0  01:29        1.08
  WS02006242           JUNCTION     0.64     1.55     8.82     0  01:29        1.10
  WS02006243           JUNCTION     0.51     1.48     8.90     0  01:29        0.93
  WS02006245           JUNCTION     0.48     1.56     9.04     0  01:29        0.86
  WS02006247           JUNCTION     0.49     1.47     8.97     0  01:29        0.84
  WS02006248           JUNCTION     0.43     1.10     8.69     0  01:29        0.75
  WS02006249           JUNCTION     0.45     0.75     8.34     0  01:30        0.74
  WS02006239           JUNCTION     0.65     2.03     9.24     0  01:29        1.18
  WS02006251           JUNCTION     0.45     0.84     8.51     0  01:30        0.84
  WS02006252           JUNCTION     0.36     0.59     8.83     0  01:29        0.59
  WS02006253           JUNCTION     0.47     0.88     8.52     0  01:31        0.87
  WS02006256           JUNCTION     1.10     1.93     8.86     0  01:34        1.45
  WS02004138           JUNCTION     0.13     0.19     7.44     0  01:20        0.19
  WS02004407           JUNCTION     0.25     0.39     6.70     0  01:36        0.39
  WS02006228           JUNCTION     0.89     1.63     8.28     0  01:35        1.61
  WS02006229           JUNCTION     0.88     1.68     8.38     0  01:35        1.67
  WS02006280           JUNCTION     0.10     0.31     8.58     0  01:35        0.30
  WS02006284           JUNCTION     0.41     0.68     9.08     0  01:36        0.68
  WS02006287           JUNCTION     0.15     0.43     9.38     0  01:36        0.43
  WSF200               JUNCTION     0.25     0.41     5.64     0  01:38        0.40
  HS02004901           JUNCTION     0.17     0.40    10.23     0  01:33        0.40
  HS02004881           JUNCTION     0.02     0.06     9.09     0  01:36        0.06
  HS02004876           JUNCTION     0.06     0.18     9.21     0  01:36        0.18
  HS02004870           JUNCTION     0.03     0.11     9.39     0  01:36        0.11
  HS02004862           JUNCTION     0.03     0.12     9.50     0  01:37        0.12
  HS02004856           JUNCTION     0.09     0.16     9.59     0  01:37        0.16
  HS02004852           JUNCTION     0.02     0.09     9.60     0  01:37        0.09
  HS02004848           JUNCTION     0.02     0.08     9.68     0  01:37        0.08
  HS02004842           JUNCTION     0.34     0.41     9.68     0  01:37        0.41
  HS02004837           JUNCTION     0.04     0.10     9.68     0  01:37        0.10
  HS02004830           JUNCTION     0.05     0.13     9.60     0  01:36        0.13
  HS02004824           JUNCTION     0.04     0.17     9.57     0  01:35        0.17
  HS02004817           JUNCTION     0.48     0.74     9.59     0  01:35        0.74
  HS02004807           JUNCTION     0.17     0.41     9.58     0  01:36        0.41
  HS02004802           JUNCTION     0.20     0.44     9.56     0  01:36        0.44
  HS02004799           JUNCTION     0.18     0.51     9.72     0  01:34        0.51
  HS02004792           JUNCTION     0.06     0.24     9.76     0  01:33        0.24
  HS02004788           JUNCTION     0.05     0.17    10.07     0  01:34        0.17
  HS02004785           JUNCTION     0.08     0.27    10.17     0  01:33        0.27
  HS02004777           JUNCTION     0.19     0.41    10.21     0  01:33        0.41
  HS02004770           JUNCTION     0.16     0.39    10.22     0  01:33        0.39
  HS02004480           JUNCTION     0.13     0.42     9.66     0  01:34        0.42
  HS02004479           JUNCTION     0.17     0.46     9.66     0  01:34        0.46
  HS02004478           JUNCTION     0.10     0.32     9.54     0  01:36        0.32
  YS02001745           JUNCTION     0.82     1.75     9.27     0  01:33        1.03
  YS02001748           JUNCTION     1.23     2.27     9.35     0  01:32        1.45
  YS02001751           JUNCTION     1.41     2.20     9.08     0  01:32        1.63
  YS02001754           JUNCTION     1.67     2.20     8.81     0  01:32        1.88
  YS02001762           JUNCTION     1.87     2.08     8.48     0  01:33        2.07
  YS02001765           JUNCTION     1.82     2.03     8.48     0  01:33        2.01
  YS02001767           JUNCTION     1.78     1.97     8.46     0  01:33        1.97
  YS02001770           JUNCTION     1.78     1.95     8.44     0  01:32        1.95
  YS02001774           JUNCTION     1.84     2.02     8.44     0  01:31        1.99
  YS02001779           JUNCTION     1.57     1.68     8.37     0  01:30        1.68
  YS02001882           JUNCTION     0.86     1.68     8.40     0  01:37        1.63
  YS02001884           JUNCTION     0.95     1.77     8.38     0  01:37        1.73
  YS02001759           JUNCTION     1.90     2.13     8.49     0  01:33        2.11
  YS02001887           JUNCTION     1.03     1.82     8.36     0  01:37        1.81
  YS02001890           JUNCTION     1.05     1.81     8.32     0  01:37        1.81
  YS02001898           JUNCTION     0.82     1.58     8.31     0  01:37        1.56
  YS02001901           JUNCTION     0.93     1.69     8.30     0  01:37        1.67
  YS02001904           JUNCTION     0.91     1.64     8.27     0  01:37        1.63
  YS02001907           JUNCTION     1.24     1.96     8.25     0  01:37        1.96
  YS02001910           JUNCTION     1.04     1.90     8.41     0  01:37        1.79
  YS02001915           JUNCTION     0.84     1.94     8.66     0  01:35        1.62
  YS02001918           JUNCTION     0.56     1.63     8.70     0  01:37        1.31
  YS02001619           JUNCTION     1.36     1.61     8.54     0  01:31        1.50
  YS02001629           JUNCTION     1.71     1.85     8.40     0  01:31        1.85
  YS02001641           JUNCTION     1.81     1.95     8.39     0  01:32        1.93
  YS02001644           JUNCTION     1.81     1.92     8.35     0  01:32        1.92
  YS02001652           JUNCTION     1.68     2.16     8.76     0  01:33        2.02
  YS02001655           JUNCTION     1.44     2.20     9.05     0  01:32        1.93
  YS02001920           JUNCTION     0.66     1.69     8.70     0  01:39        1.42
  YS02001923           JUNCTION     0.47     1.50     8.76     0  01:39        1.18
  YS02001926           JUNCTION     0.47     1.28     8.73     0  01:39        1.09
  YS02001929           JUNCTION     0.30     0.90     8.59     0  01:39        0.86
  YS02001658           JUNCTION     1.17     2.30     9.44     0  01:32        1.68
  YS02001661           JUNCTION     0.93     2.46     9.86     0  01:33        1.54
  YS02001664           JUNCTION     0.43     0.76     8.68     0  01:33        0.71
  YS02001622           JUNCTION     1.38     1.62     8.52     0  01:31        1.51
  YS02001633           JUNCTION     1.81     1.97     8.42     0  01:32        1.94
  YS02001649           JUNCTION     1.87     2.05     8.44     0  01:32        2.05
  YS02001757           JUNCTION     2.00     2.21     8.47     0  01:32        2.20
  YS02001895           JUNCTION     0.81     1.57     8.32     0  01:37        1.56
  YS02001625           JUNCTION     1.66     1.78     8.38     0  01:31        1.78
  YS02163301           JUNCTION     1.74     1.93     8.45     0  01:31        1.88
  YS02163601           JUNCTION     1.85     2.02     8.41     0  01:32        1.98
  YS02164001           JUNCTION     1.79     1.95     8.40     0  01:32        1.91
  YS02001647           JUNCTION     1.65     1.83     8.44     0  01:32        1.79
  YSB1154              JUNCTION     0.31     0.61     9.67     0  01:34        0.61
  YSB6556              JUNCTION     0.20     0.50     9.67     0  01:34        0.50
  YSB1174              JUNCTION     0.26     0.56     9.67     0  01:34        0.56
  YSB1171              JUNCTION     0.46     0.76     9.67     0  01:34        0.76
  YS02006553           JUNCTION     1.24     2.15     8.44     0  01:44        1.97
  YS02006561           JUNCTION     0.53     1.75     8.41     0  01:44        1.09
  YS02006556           JUNCTION     1.20     2.36     8.67     0  01:44        1.93
  YS02006558           JUNCTION     1.24     2.48     8.75     0  01:44        1.98
  YS02001783           JUNCTION     0.80     2.28     8.42     0  01:44        1.48
  YS02001784           JUNCTION     0.79     2.29     8.36     0  01:44        1.42
  YS02001786           JUNCTION     0.70     2.23     8.26     0  01:44        1.27
  YS02001788           JUNCTION     0.61     2.28     8.26     0  01:44        1.13
  YS02001790           JUNCTION     0.72     1.96     7.60     0  01:44        1.30
  YS02001791           JUNCTION     0.68     1.86     7.33     0  01:44        1.27
  YS02001793           JUNCTION     0.95     1.88     6.71     0  01:44        1.80
  WS02004139           JUNCTION     0.56     0.71     5.62     0  03:40        0.71
  WSC                  OUTFALL      0.31     0.42     1.09     0  02:04        0.42
  3                    OUTFALL      0.13     0.30     6.30     0  01:30        0.30
  4                    OUTFALL      0.05     0.24     7.24     0  01:36        0.24
  5                    OUTFALL      0.00     0.00     5.00     0  00:00        0.00
  JK-storage           STORAGE      3.57     5.80     6.60     0  01:44        5.80
  CC-storage           STORAGE      1.21     1.46     8.46     0  03:03        1.46
  XR-storage           STORAGE      7.54     7.72     5.72     0  01:39        7.72
  
  
  *******************
  Node Inflow Summary
  *******************
  
  -------------------------------------------------------------------------------------------------
                                  Maximum  Maximum                  Lateral       Total        Flow
                                  Lateral    Total  Time of Max      Inflow      Inflow     Balance
                                   Inflow   Inflow   Occurrence      Volume      Volume       Error
  Node                 Type           LPS      LPS  days hr:min    10^6 ltr    10^6 ltr     Percent
  -------------------------------------------------------------------------------------------------
  WS02001211           JUNCTION      7.35   382.20     0  01:20       0.207        5.59       0.703
  WS02001212           JUNCTION      0.00   378.83     0  01:21           0        5.55       0.400
  WS02001213           JUNCTION      0.00   378.26     0  01:21           0        5.53       0.413
  WS02003069           JUNCTION      0.32  1076.57     0  02:02     0.00902        16.1       0.199
  WS02003072           JUNCTION      0.00  1076.20     0  02:03           0        16.1       0.241
  WS02003073           JUNCTION      1.82  1077.81     0  02:03      0.0514        16.1       0.279
  WS02003060           JUNCTION     16.53  1076.45     0  02:02       0.466        16.2       0.186
  WS02003066           JUNCTION      0.00   890.40     0  01:38           0        10.2       0.044
  WS02003059           JUNCTION      0.00   376.83     0  01:22           0        5.51       0.765
  WS02003067           JUNCTION      0.00   889.61     0  01:38           0        10.2       0.092
  WS02004401           JUNCTION      0.00   893.33     0  01:35           0        10.5       0.189
  WS02004402           JUNCTION      0.00   893.32     0  01:36           0        10.4       0.180
  WS02004403           JUNCTION      0.00   893.35     0  01:36           0        10.4       0.165
  WS02004404           JUNCTION      0.16   893.56     0  01:36     0.00457        10.4       0.126
  WS02004406           JUNCTION      0.00   893.67     0  01:36           0        10.4       0.306
  WS02004409           JUNCTION      0.00   893.52     0  01:36           0        10.3       0.154
  WS02004410           JUNCTION      0.00   892.00     0  01:37           0        10.3       0.176
  WS02004411           JUNCTION      0.00   889.71     0  01:38           0        10.3       0.182
  WS02004412           JUNCTION      0.00   889.65     0  01:38           0        10.3       0.198
  WS02004413           JUNCTION      0.00   889.69     0  01:38           0        10.3       0.293
  WS02004405           JUNCTION      0.04   893.61     0  01:36     0.00107        10.4       0.188
  WS02006109           JUNCTION      1.23   887.47     0  01:32      0.0347        10.4       0.166
  WS02006110           JUNCTION      0.00   887.56     0  01:32           0        10.4       0.163
  WS02006111           JUNCTION      0.00   869.24     0  01:30           0        10.4       0.031
  WS02006112           JUNCTION     34.22   893.65     0  01:35       0.151        10.5       0.253
  WS02006113           JUNCTION      0.00   887.63     0  01:32           0        10.4       0.076
  WS02006115           JUNCTION      0.00   893.65     0  01:35           0        10.5       0.171
  WS02006116           JUNCTION      0.00   893.36     0  01:35           0        10.5       0.148
  WS02006230           JUNCTION     10.28   400.99     0  04:42        0.29        6.35       0.183
  WS02006231           JUNCTION      0.00   391.41     0  04:41           0        6.05       0.113
  WS02006232           JUNCTION      0.00   391.39     0  04:42           0        6.04       0.216
  WS02006234           JUNCTION      0.00   392.48     0  04:41           0        6.04       0.086
  WS02006235           JUNCTION      0.00   392.31     0  04:41           0        6.23       0.120
  WS02006238           JUNCTION      0.00   312.69     0  07:30           0         4.4       0.115
  WS02006240           JUNCTION      0.00   315.89     0  07:26           0        4.36       0.115
  WS02006242           JUNCTION      0.00   323.86     0  07:21           0        4.36       0.167
  WS02006243           JUNCTION      0.00   376.62     0  01:29           0        4.34      -0.249
  WS02006245           JUNCTION      0.00   398.68     0  01:29           0        4.34       0.184
  WS02006247           JUNCTION      0.00   413.51     0  01:29           0        4.34       0.008
  WS02006248           JUNCTION      0.00   421.93     0  01:29           0        4.34      -0.068
  WS02006249           JUNCTION      0.00   546.92     0  01:31           0        5.71       0.080
  WS02006239           JUNCTION      0.00   312.52     0  07:30           0        4.38       0.139
  WS02006251           JUNCTION      0.08   552.16     0  01:31     0.00217        5.74      -0.002
  WS02006252           JUNCTION      0.00   400.00     0  02:40           0        4.88       0.001
  WS02006253           JUNCTION      4.74   178.63     0  01:36      0.0174       0.862      -0.038
  WS02006256           JUNCTION      0.00   668.98     0  01:34           0        8.15       0.043
  WS02004138           JUNCTION      0.00   379.94     0  03:40           0        5.41       0.069
  WS02004407           JUNCTION      0.00   893.97     0  01:36           0        10.4       0.066
  WS02006228           JUNCTION      0.00   886.30     0  01:32           0        10.4       0.119
  WS02006229           JUNCTION      0.00   889.33     0  01:32           0        10.4       0.124
  WS02006280           JUNCTION      0.00   821.21     0  01:36           0        4.12       0.001
  WS02006284           JUNCTION      0.10   821.22     0  01:36      0.0027        4.12       0.020
  WS02006287           JUNCTION      0.00   821.11     0  01:36           0        4.12       0.018
  WSF200               JUNCTION      0.00   890.45     0  01:39           0        10.2       0.042
  HS02004901           JUNCTION     41.69    41.69     0  01:31       0.183       0.183       0.972
  HS02004881           JUNCTION     17.57   174.51     0  01:36      0.0714       0.818       0.066
  HS02004876           JUNCTION     30.53   157.86     0  01:36       0.138       0.747       0.075
  HS02004870           JUNCTION     32.08   127.64     0  01:36       0.135       0.609       0.018
  HS02004862           JUNCTION     28.49    96.84     0  01:37       0.155       0.474       0.037
  HS02004856           JUNCTION     23.95    68.40     0  01:36       0.102        0.32       0.450
  HS02004852           JUNCTION      0.00    45.39     0  01:37           0       0.218       0.028
  HS02004848           JUNCTION     61.76    61.76     0  01:40       0.354       0.354       0.013
  HS02004842           JUNCTION      0.00    18.52     0  01:51           0       0.149       9.567
  HS02004837           JUNCTION     59.75    74.34     0  01:37       0.414        0.55       0.147
  HS02004830           JUNCTION      0.15    74.45     0  01:37     0.00423        0.54       0.230
  HS02004824           JUNCTION     72.88   147.22     0  01:40        0.43       0.969       0.056
  HS02004817           JUNCTION      0.60   150.70     0  01:40      0.0169       0.985       1.721
  HS02004807           JUNCTION     59.71   205.54     0  01:38       0.248        1.22       0.359
  HS02004802           JUNCTION      0.00   204.79     0  01:39           0        1.22       0.327
  HS02004799           JUNCTION     47.08   525.51     0  01:33       0.202         2.5       0.119
  HS02004792           JUNCTION    203.19   478.62     0  01:33       0.982         2.3       0.017
  HS02004788           JUNCTION     66.25   277.11     0  01:34       0.351        1.32       0.029
  HS02004785           JUNCTION      0.15   210.94     0  01:33     0.00423       0.971       0.053
  HS02004777           JUNCTION      0.03   211.16     0  01:32    0.000846       0.971       0.540
  HS02004770           JUNCTION    171.10   212.05     0  01:32       0.791       0.972       0.316
  HS02004480           JUNCTION      0.00   623.60     0  01:34           0        2.92       0.035
  HS02004479           JUNCTION      0.00    98.35     0  01:34           0       0.432       0.172
  HS02004478           JUNCTION      0.00   821.07     0  01:36           0        4.12       0.008
  YS02001745           JUNCTION    635.50   635.50     0  03:01        5.48        5.48       0.215
  YS02001748           JUNCTION      0.04   636.31     0  03:01     0.00127        5.47       0.416
  YS02001751           JUNCTION      0.01   636.35     0  03:01     0.00031        5.45       0.441
  YS02001754           JUNCTION      0.26   636.64     0  03:01     0.00733        5.44       0.447
  YS02001762           JUNCTION      0.00   373.51     0  01:45           0        3.07       0.688
  YS02001765           JUNCTION      0.00   373.49     0  01:45           0        3.06       0.799
  YS02001767           JUNCTION      0.54   373.47     0  01:45      0.0151        3.09       1.171
  YS02001770           JUNCTION    726.70  1033.14     0  03:01           6        7.52       0.417
  YS02001774           JUNCTION      0.00   851.17     0  03:07           0        5.81       0.429
  YS02001779           JUNCTION      0.01   851.17     0  03:07    0.000141        5.79       0.265
  YS02001882           JUNCTION      0.00    48.82     0  01:34           0      0.0405       5.073
  YS02001884           JUNCTION      0.00    59.25     0  01:32           0      0.0793       9.057
  YS02001759           JUNCTION    688.01   890.79     0  01:49        5.55        7.06       0.322
  YS02001887           JUNCTION    787.85   787.85     0  03:01        6.23        6.27       0.146
  YS02001890           JUNCTION      0.00   787.89     0  03:01           0        6.22       0.151
  YS02001898           JUNCTION      0.00   570.36     0  01:38           0        5.25       0.065
  YS02001901           JUNCTION      0.00   570.88     0  01:38           0        5.25       0.125
  YS02001904           JUNCTION      0.00   570.90     0  01:38           0        5.24       0.108
  YS02001907           JUNCTION      0.00  1384.53     0  03:01           0        13.2       0.190
  YS02001910           JUNCTION      0.00   868.06     0  03:01           0        7.97       0.169
  YS02001915           JUNCTION    536.93   868.03     0  03:01        4.53        8.02       0.071
  YS02001918           JUNCTION      0.00   356.69     0  01:39           0        3.52       0.050
  YS02001619           JUNCTION    541.58   541.58     0  03:01        4.58        4.58       0.267
  YS02001629           JUNCTION      0.00   365.95     0  01:31           0        1.87       1.520
  YS02001641           JUNCTION      0.00   450.86     0  01:32           0        5.95       0.352
  YS02001644           JUNCTION    611.54  1882.08     0  03:01         5.3        18.1       0.143
  YS02001652           JUNCTION      0.00   607.55     0  03:01           0        4.73       0.477
  YS02001655           JUNCTION      0.15   607.54     0  03:01     0.00434        4.75       0.535
  YS02001920           JUNCTION      2.87   356.50     0  01:39      0.0809         3.5       0.096
  YS02001923           JUNCTION      0.04   333.65     0  03:01     0.00106         3.4       0.041
  YS02001926           JUNCTION      0.05   330.59     0  03:01     0.00147        3.38       0.106
  YS02001929           JUNCTION    330.66   330.66     0  03:01        3.37        3.37       0.023
  YS02001658           JUNCTION      0.00   607.37     0  03:01           0        4.77       0.477
  YS02001661           JUNCTION      0.00   805.20     0  01:49           0        5.39       0.104
  YS02001664           JUNCTION    606.27   606.27     0  03:01        4.78         5.4       0.122
  YS02001622           JUNCTION      0.00   541.61     0  03:01           0        4.57       0.694
  YS02001633           JUNCTION    625.57   625.57     0  03:01        5.46        6.64       0.481
  YS02001649           JUNCTION      0.00  1289.94     0  03:01           0         9.5       0.388
  YS02001757           JUNCTION      0.00  2174.08     0  01:48           0        12.8       0.724
  YS02001895           JUNCTION      0.00   570.03     0  01:38           0        5.25       0.107
  YS02001625           JUNCTION      0.00   743.62     0  03:01           0        5.19       0.772
  YS02163301           JUNCTION      0.00   305.26     0  01:30           0        1.87       1.292
  YS02163601           JUNCTION      0.11   450.14     0  01:32      0.0031        5.95       0.504
  YS02164001           JUNCTION      0.00   450.47     0  01:32           0        5.94       0.336
  YS02001647           JUNCTION      0.00   846.70     0  03:01           0         7.8       0.362
  YSB1154              JUNCTION     54.28    54.28     0  01:34       0.243       0.243       0.595
  YSB6556              JUNCTION      0.00    54.37     0  01:35           0       0.244       0.519
  YSB1174              JUNCTION     46.17    46.17     0  01:30        0.18       0.181       0.712
  YSB1171              JUNCTION      0.00    98.46     0  01:34           0       0.431       1.495
  YS02006553           JUNCTION      0.00   699.73     0  03:50           0        7.72       0.208
  YS02006561           JUNCTION      0.00  1148.02     0  01:44           0        13.5       0.006
  YS02006556           JUNCTION      0.00   699.75     0  03:50           0        7.73       0.144
  YS02006558           JUNCTION    724.98  1148.41     0  01:44         5.8        13.5       0.038
  YS02001783           JUNCTION      0.00  1147.86     0  01:43           0        13.5       0.021
  YS02001784           JUNCTION      1.06  1149.04     0  01:44      0.0299        13.5       0.032
  YS02001786           JUNCTION      0.06  1149.03     0  01:43     0.00159        13.5       0.030
  YS02001788           JUNCTION      0.07  1150.12     0  01:44       0.002        13.5       0.017
  YS02001790           JUNCTION      0.15  1159.28     0  01:42     0.00437        13.5       0.023
  YS02001791           JUNCTION      0.00  1254.27     0  01:42           0        13.5       0.008
  YS02001793           JUNCTION      0.00  1212.33     0  01:42           0        13.5       0.005
  WS02004139           JUNCTION      0.32   379.74     0  01:20     0.00905        5.42       0.688
  WSC                  OUTFALL       0.00  1077.43     0  02:04           0        16.1       0.000
  3                    OUTFALL       0.00   667.80     0  01:34           0        6.28       0.000
  4                    OUTFALL       0.00   410.75     0  01:36           0        1.37       0.000
  5                    OUTFALL       0.00     0.00     0  00:00           0           0       0.000 ltr
  JK-storage           STORAGE       0.00  1185.23     0  01:38           0        13.6      -5.714
  CC-storage           STORAGE       0.00  2173.97     0  01:48           0        8.74       0.563
  XR-storage           STORAGE    1408.02  1408.02     0  03:01        16.7        17.3      -0.002
  
  
  **********************
  Node Surcharge Summary
  **********************
  
  Surcharging occurs when water rises above the top of the highest conduit.
  ---------------------------------------------------------------------
                                               Max. Height   Min. Depth
                                   Hours       Above Crown    Below Rim
  Node                 Type      Surcharged         Meters       Meters
  ---------------------------------------------------------------------
  WS02004401           JUNCTION        1.36          0.377        1.283
  WS02004402           JUNCTION        1.61          0.348        1.392
  WS02004403           JUNCTION        1.69          0.269        1.761
  WS02004404           JUNCTION        1.78          0.317        2.463
  WS02004406           JUNCTION        1.75          0.642        1.808
  WS02004413           JUNCTION        0.08          0.005        2.195
  WS02004405           JUNCTION        1.76          0.371        2.429
  WS02006109           JUNCTION        3.29          0.657        1.163
  WS02006110           JUNCTION        1.90          0.385        1.465
  WS02006112           JUNCTION        1.99          0.877        0.803
  WS02006115           JUNCTION        0.61          0.967        1.283
  WS02006116           JUNCTION        0.73          0.765        1.525
  WS02006230           JUNCTION        1.77          0.948        0.622
  WS02006231           JUNCTION        1.81          0.995        0.535
  WS02006232           JUNCTION        3.45          1.199        0.281
  WS02006234           JUNCTION        1.88          1.240        0.000
  WS02006235           JUNCTION        2.64          1.290        0.000
  WS02006238           JUNCTION        3.02          1.342        0.088
  WS02006240           JUNCTION        1.84          1.390        0.000
  WS02006242           JUNCTION        2.44          0.820        0.000
  WS02006243           JUNCTION        1.50          0.770        0.000
  WS02006245           JUNCTION        0.90          0.850        0.000
  WS02006247           JUNCTION        0.89          0.760        0.000
  WS02006248           JUNCTION        0.15          0.380        0.000
  WS02006239           JUNCTION        1.99          1.290        0.000
  WS02006252           JUNCTION        2.23          0.193        0.907
  WS02006256           JUNCTION        0.09          0.626        0.424
  WS02006228           JUNCTION        3.19          0.796        1.404
  HS02004817           JUNCTION        0.32          0.042        1.698
  YS02001745           JUNCTION        0.39          0.754        0.596
  YS02001748           JUNCTION        6.28          1.190        0.000
  YS02001751           JUNCTION        6.30          1.200        0.000
  YS02001754           JUNCTION        6.31          1.150        0.000
  YS02001762           JUNCTION        6.34          1.084        0.066
  YS02001765           JUNCTION        6.33          1.028        0.072
  YS02001767           JUNCTION        6.33          0.973        0.057
  YS02001770           JUNCTION        6.33          0.920        0.000
  YS02001774           JUNCTION        6.34          1.017        0.033
  YS02001779           JUNCTION        6.31          0.680        0.000
  YS02001882           JUNCTION        2.57          0.679        0.151
  YS02001884           JUNCTION        2.60          0.707        0.163
  YS02001759           JUNCTION        6.34          1.126        0.084
  YS02001887           JUNCTION        2.68          0.773        0.177
  YS02001890           JUNCTION        2.71          0.760        0.000
  YS02001898           JUNCTION        2.53          0.549        0.191
  YS02001901           JUNCTION        2.64          0.687        0.183
  YS02001904           JUNCTION        2.63          0.645        0.205
  YS02001907           JUNCTION        3.03          0.950        0.000
  YS02001910           JUNCTION        2.74          0.905        0.195
  YS02001915           JUNCTION        2.56          0.944        0.056
  YS02001918           JUNCTION        2.33          0.630        0.180
  YS02001619           JUNCTION        6.31          0.610        0.000
  YS02001629           JUNCTION        6.31          0.470        0.000
  YS02001641           JUNCTION        6.33          0.948        0.152
  YS02001644           JUNCTION        6.34          0.920        0.000
  YS02001652           JUNCTION        6.31          1.130        0.000
  YS02001655           JUNCTION        6.30          1.200        0.000
  YS02001920           JUNCTION        2.37          0.689        0.451
  YS02001923           JUNCTION        0.01          0.288        0.532
  YS02001926           JUNCTION        0.01          0.281        0.619
  YS02001658           JUNCTION        6.29          1.300        0.000
  YS02001661           JUNCTION        1.14          1.390        0.000
  YS02001622           JUNCTION        6.31          0.620        0.000
  YS02001633           JUNCTION        6.33          0.947        0.113
  YS02001649           JUNCTION        6.34          1.050        0.000
  YS02001757           JUNCTION        6.36          1.210        0.000
  YS02001895           JUNCTION        2.55          0.574        0.176
  YS02001625           JUNCTION        6.32          0.780        0.000
  YS02163301           JUNCTION        6.33          0.935        0.095
  YS02163601           JUNCTION        6.34          1.015        0.065
  YS02164001           JUNCTION        6.33          0.946        0.154
  YS02001647           JUNCTION        6.32          0.833        0.067
  YS02006553           JUNCTION        3.08          1.154        0.036
  YS02006561           JUNCTION        2.43          0.947        0.203
  YS02006556           JUNCTION        2.90          1.319        0.031
  YS02006558           JUNCTION        2.88          1.385        0.015
  YS02001783           JUNCTION        2.94          1.478        0.122
  YS02001784           JUNCTION        3.01          1.490        0.000
  YS02001786           JUNCTION        2.90          1.430        0.000
  YS02001788           JUNCTION        2.75          1.480        0.000
  YS02001790           JUNCTION        3.01          1.157        0.000
  YS02001791           JUNCTION        3.05          1.056        0.864
  YS02001793           JUNCTION        3.39          0.877        1.723
  
  
  *********************
  Node Flooding Summary
  *********************
  
  Flooding refers to all water that overflows a node, whether it ponds or not.
  --------------------------------------------------------------------------
                                                             Total   Maximum
                                 Maximum   Time of Max       Flood    Ponded
                        Hours       Rate    Occurrence      Volume     Depth
  Node                 Flooded       LPS   days hr:min    10^6 ltr    Meters
  --------------------------------------------------------------------------
  WS02006234              0.01     94.38      0  01:29       0.000     0.000
  WS02006235              0.01     13.98      0  01:29       0.000     0.000
  WS02006240              0.01    192.19      0  01:29       0.000     0.000
  WS02006242              0.01     54.17      0  01:29       0.000     0.000
  WS02006243              0.01    261.70      0  01:29       0.000     0.000
  WS02006245              0.01    108.86      0  01:29       0.000     0.000
  WS02006247              0.01    184.24      0  01:29       0.000     0.000
  WS02006248              0.01    255.04      0  01:29       0.000     0.000
  WS02006239              0.01    172.48      0  01:29       0.000     0.000
  YS02001748              0.01    242.04      0  01:32       0.000     0.000
  YS02001751              0.01      4.19      0  01:32       0.000     0.000
  YS02001754              0.01      4.57      0  01:32       0.000     0.000
  YS02001770              0.58    181.95      0  03:01       0.132     0.000
  YS02001779              4.44    851.17      0  03:07       5.769     0.000
  YS02001890              1.65    271.48      0  03:01       0.959     0.000
  YS02001907              2.18   1136.86      0  03:01       5.465     0.000
  YS02001619              0.01    127.17      0  01:31       0.000     0.000
  YS02001629              0.01    352.11      0  01:31       0.004     0.000
  YS02001644              5.85   1882.07      0  03:01      17.230     0.000
  YS02001652              0.01     26.98      0  01:33       0.000     0.000
  YS02001655              0.01     21.39      0  01:32       0.000     0.000
  YS02001658              0.01    272.02      0  01:32       0.000     0.000
  YS02001661              0.01    214.83      0  01:33       0.000     0.000
  YS02001622              0.01     79.75      0  01:31       0.000     0.000
  YS02001649              0.90    443.24      0  03:01       0.691     0.000
  YS02001757              0.01     29.07      0  01:32       0.000     0.000
  YS02001625              2.88    743.61      0  03:01       3.936     0.000
  YS02001784              0.01      6.39      0  01:44       0.000     0.000
  YS02001786              0.01     14.81      0  01:44       0.000     0.000
  YS02001788              0.01    141.77      0  01:44       0.000     0.000
  YS02001790              0.01    220.49      0  01:44       0.000     0.000
  JK-storage              2.89    972.54      0  01:57       6.442     0.000
  XR-storage              5.77   1322.47      0  03:01      10.986     0.000
  
  
  **********************
  Storage Volume Summary
  **********************
  
  --------------------------------------------------------------------------------------------------
                         Average     Avg  Evap Exfil       Maximum     Max    Time of Max    Maximum
                          Volume    Pcnt  Pcnt  Pcnt        Volume    Pcnt     Occurrence    Outflow
  Storage Unit           1000 m3    Full  Loss  Loss       1000 m3    Full    days hr:min        LPS
  --------------------------------------------------------------------------------------------------
  JK-storage               0.179      62     0     0         0.291     100       0  01:44     600.00
  CC-storage               3.361      21     0     0         4.055      26       0  03:03     400.00
  XR-storage               0.905      98     0     0         0.926     100       0  01:39     379.94
  
  
  ***********************
  Outfall Loading Summary
  ***********************
  
  -----------------------------------------------------------
                         Flow       Avg       Max       Total
                         Freq      Flow      Flow      Volume
  Outfall Node           Pcnt       LPS       LPS    10^6 ltr
  -----------------------------------------------------------
  WSC                   99.99    629.06   1077.43      16.067
  3                     92.36    300.71    667.80       6.281
  4                     50.56    118.71    410.75       1.368
  5                      0.00      0.00      0.00       0.000
  -----------------------------------------------------------
  System                60.73   1048.48   2003.75      23.715
  
  
  ********************
  Link Flow Summary
  ********************
  
  -----------------------------------------------------------------------------
                                 Maximum  Time of Max   Maximum    Max/    Max/
                                  |Flow|   Occurrence   |Veloc|    Full    Full
  Link                 Type          LPS  days hr:min     m/sec    Flow   Depth
  -----------------------------------------------------------------------------
  WS02003066WSF200     CONDUIT    890.45     0  01:39      3.12    0.15    0.30
  WS02006287WS02006284 CONDUIT    821.13     0  01:36      2.53    0.38    0.43
  WS02006284WS02006280 CONDUIT    821.21     0  01:36      2.76    0.34    0.40
  WS02006280WS02006229 CONDUIT    821.65     0  01:36      4.28    0.18    0.40
  WS02006229WS02006228 CONDUIT    886.30     0  01:32      1.76    2.94    1.00
  WS02006256WS02006235 CONDUIT    166.25     0  00:01      2.58    1.76    1.00
  WS02006253WS02006251 CONDUIT    184.30     0  01:37      0.69    0.55    1.00
  WS02006252WS02006251 CONDUIT    400.21     0  07:26      3.18    1.47    1.00
  WS02006251WS02006249 CONDUIT    546.92     0  01:31      1.44    1.58    1.00
  WS02006249WS02006248 CONDUIT    421.93     0  01:29      1.31    2.31    1.00
  WS02006248WS02006247 CONDUIT    413.51     0  01:29      1.31    0.90    1.00
  WS02006247WS02006245 CONDUIT    398.68     0  01:29      1.24    3.16    1.00
  WS02006245WS02006243 CONDUIT    376.62     0  01:29      1.33    1.11    1.00
  WS02006243WS02006242 CONDUIT    323.86     0  07:21      1.00    0.69    1.00
  WS02006242WS02006240 CONDUIT    315.89     0  07:26      0.86    1.25    1.00
  WS02006240WS02006239 CONDUIT    312.52     0  07:30      0.87    0.98    1.00
  WS02006239WS02006238 CONDUIT    312.69     0  07:30      0.81    1.00    1.00
  WS02006238WS02006235 CONDUIT    312.64     0  07:30      1.25    0.70    1.00
  WS02006235WS02006234 CONDUIT    392.48     0  04:41      1.04    4.14    1.00
  WS02006234WS02006232 CONDUIT    391.39     0  04:42      1.13    0.79    1.00
  WS02006232WS02006231 CONDUIT    391.41     0  04:41      1.07    0.82    1.00
  WS02006231WS02006230 CONDUIT    390.71     0  04:42      1.36    5.93    1.00
  WS02006230WS02006229 CONDUIT    400.59     0  04:42      1.04    8.91    1.00
  WS02006228WS02006109 CONDUIT    886.24     0  01:32      1.76    3.87    1.00
  WS02006116WS02004401 CONDUIT    893.33     0  01:35      1.14    1.23    1.00
  WS02006115WS02006116 CONDUIT    893.36     0  01:35      1.14    1.15    1.00
  WS02006113WS02006111 CONDUIT    869.24     0  01:30      2.71    1.04    0.99
  WS02006112WS02006115 CONDUIT    893.65     0  01:35      1.16    0.53    1.00
  WS02006111WS02006112 CONDUIT    861.25     0  01:36      2.01    0.41    0.99
  WS02006110WS02006113 CONDUIT    887.63     0  01:32      1.91    0.81    1.00
  WS02006109WS02006110 CONDUIT    887.56     0  01:32      1.77    1.71    1.00
  WS02004411WS02004412 CONDUIT    889.65     0  01:38      1.21    1.26    0.89
  WS02004401WS02004402 CONDUIT    893.32     0  01:36      1.14    1.07    1.00
  WS02004413WS02003067 CONDUIT    889.61     0  01:38      1.48    0.38    0.71
  WS02004412WS02004413 CONDUIT    889.69     0  01:38      1.16    0.60    0.94
  WS02004410WS02004411 CONDUIT    889.71     0  01:38      1.25    1.22    0.90
  WS02004409WS02004410 CONDUIT    892.00     0  01:37      1.33    1.15    0.91
  WS02004407WS02004409 CONDUIT    893.52     0  01:36      1.89    0.32    0.65
  WS02004406WS02004407 CONDUIT    893.97     0  01:36      1.54    0.40    0.69
  WS02004405WS02004406 CONDUIT    893.67     0  01:36      1.14    1.76    1.00
  WS02004404WS02004405 CONDUIT    893.57     0  01:36      1.14    8.75    1.00
  WS02004403WS02004404 CONDUIT    893.39     0  01:36      1.14    0.65    1.00
  WS02004402WS02004403 CONDUIT    893.35     0  01:36      1.14    1.28    1.00
  WS02004139WS02001211 CONDUIT    374.85     0  01:20      0.58    0.47    0.57
  WS02004138WS02004139 CONDUIT    379.42     0  01:20      2.39    0.08    0.42
  WS02003067WS02003066 CONDUIT    890.40     0  01:38      1.61    0.29    0.49
  WS02001213WS02003059 CONDUIT    376.83     0  01:22      0.68    0.62    0.78
  WS02001212WS02001213 CONDUIT    378.26     0  01:21      1.31    0.58    0.47
  WS02001211WS02001212 CONDUIT    378.83     0  01:21      0.77    0.29    0.62
  WS02003072WS02003073 CONDUIT   1075.99     0  02:03      1.81    2.32    0.52
  WS02003069WS02003072 CONDUIT   1076.20     0  02:03      1.70    0.52    0.55
  WS02003060WS02003069 CONDUIT   1076.25     0  02:02      1.93    0.42    0.50
  WS02003059WS02003060 CONDUIT    374.98     0  01:23      0.93    0.24    0.69
  HS02004901HS02004770 CONDUIT     40.98     0  01:33      0.10    0.15    0.57
  HS02004876HS02004881 CONDUIT    157.88     0  01:36      1.33    1.68    0.17
  HS02004870HS02004876 CONDUIT    127.61     0  01:36      0.90    0.08    0.20
  HS02004842HS02004848 CONDUIT     18.52     0  01:51      0.08    0.01    0.35
  HS02004837HS02004842 CONDUIT     18.98     0  01:52      0.41    0.01    0.36
  HS02004830HS02004837 CONDUIT     74.30     0  01:37      0.68    0.07    0.16
  HS02004824HS02004830 CONDUIT     75.04     0  01:38      0.62    0.10    0.21
  HS02004817HS02004824 CONDUIT    150.10     0  01:40      0.35    0.07    0.62
  HS02004770HS02004777 CONDUIT    211.13     0  01:32      0.52    0.39    0.58
  HS02004799HS02004480 CONDUIT    525.37     0  01:34      1.14    0.66    0.66
  HS02004792HS02004799 CONDUIT    478.53     0  01:33      1.27    0.29    0.54
  HS02004788HS02004792 CONDUIT    277.00     0  01:34      1.34    0.18    0.30
  HS02004785HS02004788 CONDUIT    210.87     0  01:34      0.96    1.59    0.31
  HS02004777HS02004785 CONDUIT    210.79     0  01:33      0.62    0.26    0.49
  HS02004480HS02004478 CONDUIT    623.55     0  01:34      1.66    2.63    0.54
  HS02004479HS02004480 CONDUIT     98.64     0  01:35      0.34    0.10    0.63
  HS02004862HS02004870 CONDUIT     96.84     0  01:37      0.86    0.10    0.16
  HS02004848HS02004852 CONDUIT     45.39     0  01:37      0.56    0.05    0.12
  HS02004856HS02004862 CONDUIT     68.36     0  01:37      0.64    0.07    0.15
  HS02004852HS02004856 CONDUIT     45.48     0  01:38      0.37    0.05    0.18
  HS02004802HS02004478 CONDUIT    205.89     0  01:40      0.56    0.18    0.54
  HS02004478WS02006287 CONDUIT    821.11     0  01:36      2.26    0.23    0.40
  HS02004817HS02004807 CONDUIT    151.18     0  01:40      0.28    0.09    0.79
  HS02004807HS02004802 CONDUIT    204.79     0  01:39      0.50    0.39    0.59
  YS02001759YS02001757 CONDUIT    890.73     0  01:49      1.13    0.63    1.00
  YS02001762YS02001759 CONDUIT    373.66     0  01:45      0.48    0.43    1.00
  YS02001765YS02001762 CONDUIT    373.51     0  01:45      0.48    0.35    1.00
  YS02001770YS02001767 CONDUIT    372.94     0  01:45      0.49    1.48    1.00
  YS02001774YS02001770 CONDUIT    851.17     0  03:07      1.08    0.54    1.00
  YS02001779YS02001774 CONDUIT    851.17     0  03:07      1.08    0.43    1.00
  YS02001649YS02001757 CONDUIT    897.13     0  01:47      1.14    0.54    1.00
  YS02001767YS02001765 CONDUIT    373.49     0  01:45      0.48    0.47    1.00
  YS02006561YS02001783 CONDUIT   1147.86     0  01:43      2.28    0.59    1.00
  YS02001783YS02001784 CONDUIT   1147.98     0  01:44      2.28    1.58    1.00
  YS02001784YS02001785 CONDUIT   1148.97     0  01:43      2.29    2.67    1.00
  YS02001788YS02001790 CONDUIT   1159.12     0  01:42      2.71    0.85    1.00
  YS02001790YS02001791 CONDUIT   1254.27     0  01:42      3.40    1.36    1.00
  YS02001791YS02001793 CONDUIT   1212.33     0  01:42      6.63    0.52    1.00
  YS02001910YS02001907 CONDUIT    868.14     0  03:01      1.11    0.49    1.00
  YS02001786YS02001788 CONDUIT   1150.05     0  01:44      2.46    2.22    1.00
  YS02001915YS02001910 CONDUIT    868.06     0  03:01      1.11    0.43    1.00
  YS02001918YS02001915 CONDUIT    356.94     0  01:39      0.56    0.20    1.00
  YS02001923YS02001920 CONDUIT    353.63     0  01:39      0.88    0.16    1.00
  YS02001926YS02001923 CONDUIT    333.62     0  03:01      0.95    0.48    1.00
  YS02001929YS02001926 CONDUIT    330.54     0  03:01      1.03    0.16    0.95
  YS02001920YS02001918 CONDUIT    356.69     0  01:39      0.84    0.35    1.00
  YS02001629YS02163301 CONDUIT    296.67     0  01:30      0.38    0.37    1.00
  YS02001619YS02001622 CONDUIT    541.61     0  03:01      0.90    0.80    1.00
  YS02001622YS02001625 CONDUIT    541.68     0  03:01      0.69    0.29    1.00
  YS02001625YS02001629 CONDUIT    305.47     0  01:30      0.45    0.15    1.00
  YS02163301YS02001633 CONDUIT    305.26     0  01:30      0.39    0.29    1.00
  YS02163601YS02164001 CONDUIT    450.47     0  01:32      0.57    0.40    1.00
  YS02164001YS02001641 CONDUIT    450.86     0  01:32      0.57    0.62    1.00
  YS02001641YS02001644 CONDUIT    451.33     0  01:32      0.57    1.46    1.00
  YS02001647YS02001649 CONDUIT    846.70     0  03:01      1.08    0.45    1.00
  YS02006553YS02006556 CONDUIT    699.75     0  03:50      0.89    0.60    1.00
  YS02006556YS02006558 CONDUIT    699.81     0  03:50      0.89    0.55    1.00
  YSB6556YSB1171       CONDUIT     54.78     0  01:35      0.16    0.06    0.86
  YS02001907YS02006553 CONDUIT    699.73     0  03:50      0.78    0.82    1.00
  YS02006558YS02006561 CONDUIT   1148.02     0  01:44      4.06    2.54    1.00
  YS02001633YS02163601 CONDUIT    450.03     0  01:32      0.57    0.47    1.00
  YS02001644YS02001647 CONDUIT    846.70     0  03:01      1.08    0.50    1.00
  YS02001745YS02001748 CONDUIT    636.27     0  03:01      1.91    0.24    1.00
  YS02001748YS02001751 CONDUIT    636.34     0  03:01      1.45    0.32    1.00
  YS02001751YS02001754 CONDUIT    636.38     0  03:01      1.17    0.31    1.00
  YS02001754YS02001757 CONDUIT    636.67     0  03:01      0.81    0.26    1.00
  YS02001882YS02001884 CONDUIT     48.82     0  01:34      0.18    0.06    1.00
  YS02001884YS02001887 CONDUIT     59.25     0  01:32      0.14    0.08    1.00
  YS02001890YS02001895 CONDUIT    570.03     0  01:38      0.73    0.27    1.00
  YS02001895YS02001898 CONDUIT    570.36     0  01:38      0.73    0.99    1.00
  YS02001898YS02001901 CONDUIT    570.88     0  01:38      0.73    0.37    1.00
  YS02001901YS02001904 CONDUIT    570.90     0  01:38      0.73    0.89    1.00
  YS02001904YS02001907 CONDUIT    571.28     0  01:38      0.73    0.20    1.00
  YS02001887YS02001890 CONDUIT    787.89     0  03:01      1.00    1.35    1.00
  YS02001652YS02001649 CONDUIT    607.56     0  03:01      0.77    0.30    1.00
  YS02001655YS02001652 CONDUIT    607.55     0  03:01      1.26    0.30    1.00
  YS02001658YS02001655 CONDUIT    607.39     0  03:01      1.67    0.26    1.00
  YS02001661YS02001658 CONDUIT    607.37     0  03:01      2.02    0.24    1.00
  YS02001664YS02001661 CONDUIT    805.20     0  01:49      1.90    0.25    0.88
  YSB1154YSB6556       CONDUIT     54.37     0  01:35      0.17    0.10    0.79
  YSB1174YSB1171       CONDUIT     45.32     0  01:31      0.13    0.07    0.90
  YSB1171HS02004479    CONDUIT     98.35     0  01:34      0.54    0.07    0.73
  HS02004881HS02006253 CONDUIT    174.50     0  01:36      2.50    0.03    0.43
  YS02001793JiankangQianchi CONDUIT   1185.23     0  01:38     16.33    0.09    1.00
  YS02001757CaochengTiaoxuchi CONDUIT   2173.97     0  01:48      3.85    0.95    1.00
  WSF200WS02003060     CONDUIT    894.84     0  01:38      2.18    0.20    0.39
  1                    CONDUIT   1077.43     0  02:04      3.39    0.38    0.42
  2                    CONDUIT    410.75     0  01:36      6.73    0.98    0.81
  3                    CONDUIT    667.80     0  01:34     10.12    1.06    1.00
  4                    CONDUIT      0.00     0  00:00      0.00    0.00    0.00
  CC-Pump-1            PUMP       200.00     0  01:27              1.00
  CC-Pump-2            PUMP       200.00     0  01:50              1.00
  JK-Pump-1            PUMP       300.00     0  01:27              1.00
  JK-Pump-2            PUMP       300.00     0  00:00              1.00
  XR-Pump-1            PUMP        95.00     0  00:20              1.00
  XR-Pump-2            PUMP        95.00     0  00:00              1.00
  XR-Pump-3            PUMP        95.00     0  00:20              1.00
  XR-Pump-4            PUMP        95.00     0  01:20              1.00
  
  
  ***************************
  Flow Classification Summary
  ***************************
  
  -------------------------------------------------------------------------------------
                      Adjusted    ---------- Fraction of Time in Flow Class ---------- 
                       /Actual         Up    Down  Sub   Sup   Up    Down  Norm  Inlet 
  Conduit               Length    Dry  Dry   Dry   Crit  Crit  Crit  Crit  Ltd   Ctrl  
  -------------------------------------------------------------------------------------
  WS02003066WSF200        1.00   0.04  0.02  0.00  0.00  0.94  0.00  0.00  0.54  0.00
  WS02006287WS02006284    1.00   0.03  0.01  0.00  0.55  0.41  0.00  0.00  0.61  0.00
  WS02006284WS02006280    1.00   0.04  0.00  0.00  0.00  0.00  0.00  0.96  0.00  0.00
  WS02006280WS02006229    1.00   0.04  0.00  0.00  0.00  0.05  0.00  0.91  0.01  0.00
  WS02006229WS02006228    1.00   0.00  0.00  0.00  0.99  0.00  0.00  0.01  0.00  0.00
  WS02006256WS02006235    1.00   0.00  0.00  0.00  1.00  0.00  0.00  0.00  0.00  0.00
  WS02006253WS02006251    1.00   0.02  0.01  0.00  0.96  0.00  0.00  0.00  0.00  0.00
  WS02006252WS02006251    1.00   0.05  0.00  0.00  0.00  0.00  0.95  0.00  0.00  0.00
  WS02006251WS02006249    1.00   0.00  0.00  0.00  1.00  0.00  0.00  0.00  0.19  0.00
  WS02006249WS02006248    1.00   0.00  0.02  0.00  0.90  0.00  0.08  0.00  0.00  0.00
  WS02006248WS02006247    1.00   0.02  0.00  0.00  0.98  0.00  0.00  0.00  0.08  0.00
  WS02006247WS02006245    1.00   0.02  0.00  0.00  0.98  0.00  0.00  0.00  0.00  0.00
  WS02006245WS02006243    1.00   0.01  0.00  0.00  0.96  0.00  0.00  0.02  0.01  0.00
  WS02006243WS02006242    1.00   0.01  0.00  0.00  0.99  0.00  0.00  0.00  0.15  0.00
  WS02006242WS02006240    1.00   0.00  0.00  0.00  0.99  0.00  0.00  0.00  0.00  0.00
  WS02006240WS02006239    1.00   0.00  0.00  0.00  0.98  0.00  0.00  0.02  0.01  0.00
  WS02006239WS02006238    1.00   0.00  0.00  0.00  1.00  0.00  0.00  0.00  0.00  0.00
  WS02006238WS02006235    1.00   0.00  0.00  0.00  1.00  0.00  0.00  0.00  0.00  0.00
  WS02006235WS02006234    1.00   0.00  0.00  0.00  0.98  0.00  0.02  0.00  0.00  0.00
  WS02006234WS02006232    1.00   0.00  0.00  0.00  1.00  0.00  0.00  0.00  0.02  0.00
  WS02006232WS02006231    1.00   0.00  0.00  0.00  0.99  0.00  0.00  0.00  0.00  0.00
  WS02006231WS02006230    1.00   0.00  0.00  0.00  0.64  0.00  0.36  0.00  0.00  0.00
  WS02006230WS02006229    1.00   0.00  0.00  0.00  0.99  0.00  0.00  0.01  0.01  0.00
  WS02006228WS02006109    1.00   0.00  0.00  0.00  1.00  0.00  0.00  0.00  0.00  0.00
  WS02006116WS02004401    1.00   0.02  0.00  0.00  0.98  0.00  0.00  0.00  0.00  0.00
  WS02006115WS02006116    1.00   0.02  0.00  0.00  0.97  0.00  0.00  0.00  0.00  0.00
  WS02006113WS02006111    1.00   0.02  0.00  0.00  0.12  0.87  0.00  0.00  0.10  0.00
  WS02006112WS02006115    1.00   0.02  0.00  0.00  0.98  0.00  0.00  0.00  0.00  0.00
  WS02006111WS02006112    1.00   0.02  0.00  0.00  0.98  0.00  0.00  0.00  0.75  0.00
  WS02006110WS02006113    1.00   0.01  0.01  0.00  0.98  0.00  0.00  0.00  0.00  0.00
  WS02006109WS02006110    1.00   0.00  0.01  0.00  0.98  0.00  0.01  0.00  0.00  0.00
  WS02004411WS02004412    1.00   0.03  0.00  0.00  0.97  0.00  0.00  0.00  0.00  0.00
  WS02004401WS02004402    1.00   0.02  0.00  0.00  0.98  0.00  0.00  0.00  0.00  0.00
  WS02004413WS02003067    1.00   0.03  0.02  0.00  0.00  0.00  0.95  0.00  0.00  0.00
  WS02004412WS02004413    1.00   0.03  0.00  0.00  0.97  0.00  0.00  0.00  0.03  0.00
  WS02004410WS02004411    1.00   0.03  0.00  0.00  0.97  0.00  0.00  0.00  0.02  0.00
  WS02004409WS02004410    1.00   0.03  0.00  0.00  0.97  0.00  0.00  0.00  0.00  0.00
  WS02004407WS02004409    1.00   0.03  0.00  0.00  0.95  0.01  0.00  0.00  0.88  0.00
  WS02004406WS02004407    1.00   0.00  0.03  0.00  0.97  0.00  0.00  0.00  0.00  0.00
  WS02004405WS02004406    1.00   0.00  0.00  0.00  1.00  0.00  0.00  0.00  0.01  0.00
  WS02004404WS02004405    1.00   0.00  0.00  0.00  1.00  0.00  0.00  0.00  0.00  0.00
  WS02004403WS02004404    1.00   0.00  0.02  0.00  0.98  0.00  0.00  0.00  0.01  0.00
  WS02004402WS02004403    1.00   0.02  0.00  0.00  0.98  0.00  0.00  0.00  0.00  0.00
  WS02004139WS02001211    1.00   0.00  0.00  0.00  0.99  0.00  0.00  0.00  0.00  0.00
  WS02004138WS02004139    1.00   0.00  0.00  0.00  0.99  0.01  0.00  0.00  1.00  0.00
  WS02003067WS02003066    1.00   0.05  0.01  0.00  0.94  0.00  0.00  0.00  0.00  0.00
  WS02001213WS02003059    1.00   0.00  0.01  0.00  0.99  0.00  0.00  0.00  0.00  0.00
  WS02001212WS02001213    1.00   0.01  0.00  0.00  0.84  0.00  0.15  0.00  0.00  0.00
  WS02001211WS02001212    1.00   0.00  0.01  0.00  0.99  0.00  0.00  0.00  0.00  0.00
  WS02003072WS02003073    1.00   0.00  0.00  0.00  0.00  0.00  0.00  1.00  0.00  0.00
  WS02003069WS02003072    1.00   0.00  0.00  0.00  1.00  0.00  0.00  0.00  0.19  0.00
  WS02003060WS02003069    1.00   0.00  0.00  0.00  0.99  0.01  0.00  0.00  0.11  0.00
  WS02003059WS02003060    1.00   0.00  0.00  0.00  1.00  0.00  0.00  0.00  0.02  0.00
  HS02004901HS02004770    1.00   0.04  0.00  0.00  0.96  0.00  0.00  0.00  0.00  0.00
  HS02004876HS02004881    1.00   0.02  0.00  0.00  0.70  0.28  0.00  0.00  0.00  0.00
  HS02004870HS02004876    1.00   0.00  0.00  0.00  0.99  0.00  0.00  0.00  0.95  0.00
  HS02004842HS02004848    1.00   0.00  0.04  0.00  0.96  0.00  0.00  0.00  0.54  0.00
  HS02004837HS02004842    1.00   0.00  0.00  0.00  0.99  0.01  0.00  0.00  0.11  0.00
  HS02004830HS02004837    1.00   0.00  0.00  0.00  1.00  0.00  0.00  0.00  0.99  0.00
  HS02004824HS02004830    1.00   0.00  0.00  0.00  1.00  0.00  0.00  0.00  0.03  0.00
  HS02004817HS02004824    1.00   0.00  0.00  0.00  1.00  0.00  0.00  0.00  0.88  0.00
  HS02004770HS02004777    1.00   0.00  0.04  0.00  0.96  0.00  0.00  0.00  0.02  0.00
  HS02004799HS02004480    1.00   0.00  0.02  0.00  0.96  0.00  0.02  0.00  0.00  0.00
  HS02004792HS02004799    1.00   0.00  0.00  0.00  0.99  0.01  0.00  0.00  0.98  0.00
  HS02004788HS02004792    1.00   0.00  0.00  0.00  0.99  0.01  0.00  0.00  0.98  0.00
  HS02004785HS02004788    1.00   0.00  0.00  0.00  1.00  0.00  0.00  0.00  0.00  0.00
  HS02004777HS02004785    1.00   0.00  0.00  0.00  1.00  0.00  0.00  0.00  0.11  0.00
  HS02004480HS02004478    1.00   0.04  0.00  0.00  0.60  0.00  0.00  0.37  0.00  0.00
  HS02004479HS02004480    1.00   0.02  0.00  0.00  0.98  0.00  0.00  0.00  0.11  0.00
  HS02004862HS02004870    1.00   0.00  0.00  0.00  1.00  0.00  0.00  0.00  0.02  0.00
  HS02004848HS02004852    1.00   0.04  0.00  0.00  0.96  0.00  0.00  0.00  0.81  0.00
  HS02004856HS02004862    1.00   0.00  0.04  0.00  0.96  0.00  0.00  0.00  0.84  0.00
  HS02004852HS02004856    1.00   0.04  0.00  0.00  0.96  0.00  0.00  0.00  0.70  0.00
  HS02004802HS02004478    1.00   0.04  0.00  0.00  0.96  0.00  0.00  0.00  0.02  0.00
  HS02004478WS02006287    1.00   0.04  0.00  0.00  0.65  0.31  0.00  0.00  0.58  0.00
  HS02004817HS02004807    1.00   0.00  0.04  0.00  0.96  0.00  0.00  0.00  0.01  0.00
  HS02004807HS02004802    1.00   0.04  0.00  0.00  0.96  0.00  0.00  0.00  0.00  0.00
  YS02001759YS02001757    1.00   0.00  0.00  0.00  1.00  0.00  0.00  0.00  0.15  0.00
  YS02001762YS02001759    1.00   0.00  0.00  0.00  1.00  0.00  0.00  0.00  0.02  0.00
  YS02001765YS02001762    1.00   0.00  0.00  0.00  1.00  0.00  0.00  0.00  0.13  0.00
  YS02001770YS02001767    1.00   0.00  0.00  0.00  1.00  0.00  0.00  0.00  0.00  0.00
  YS02001774YS02001770    1.00   0.00  0.04  0.00  0.96  0.00  0.00  0.00  0.02  0.00
  YS02001779YS02001774    1.00   0.00  0.00  0.00  1.00  0.00  0.00  0.00  0.16  0.00
  YS02001649YS02001757    1.00   0.00  0.00  0.00  1.00  0.00  0.00  0.00  0.15  0.00
  YS02001767YS02001765    1.00   0.00  0.00  0.00  1.00  0.00  0.00  0.00  0.00  0.00
  YS02006561YS02001783    1.00   0.04  0.00  0.00  0.49  0.47  0.00  0.00  0.36  0.00
  YS02001783YS02001784    1.00   0.00  0.04  0.00  0.96  0.00  0.00  0.00  0.00  0.00
  YS02001784YS02001785    1.00   0.00  0.00  0.00  1.00  0.00  0.00  0.00  0.16  0.00
  YS02001788YS02001790    1.00   0.00  0.00  0.00  0.53  0.47  0.00  0.00  0.34  0.00
  YS02001790YS02001791    1.00   0.00  0.00  0.00  0.51  0.49  0.00  0.00  0.37  0.00
  YS02001791YS02001793    1.00   0.00  0.00  0.00  0.53  0.47  0.00  0.00  0.02  0.00
  YS02001910YS02001907    1.00   0.00  0.00  0.00  0.98  0.00  0.00  0.02  0.12  0.00
  YS02001786YS02001788    1.00   0.00  0.00  0.00  0.53  0.47  0.00  0.00  0.00  0.00
  YS02001915YS02001910    1.00   0.00  0.00  0.00  0.99  0.01  0.00  0.00  0.13  0.00
  YS02001918YS02001915    1.00   0.00  0.01  0.00  0.98  0.01  0.00  0.00  0.45  0.00
  YS02001923YS02001920    1.00   0.00  0.00  0.00  1.00  0.00  0.00  0.00  0.64  0.00
  YS02001926YS02001923    1.00   0.00  0.03  0.00  0.38  0.00  0.59  0.00  0.00  0.00
  YS02001929YS02001926    1.00   0.00  0.04  0.00  0.96  0.00  0.00  0.00  0.56  0.00
  YS02001920YS02001918    1.00   0.00  0.01  0.00  0.99  0.00  0.00  0.00  0.00  0.00
  YS02001629YS02163301    1.00   0.04  0.00  0.00  0.96  0.00  0.00  0.00  0.00  0.00
  YS02001619YS02001622    1.00   0.04  0.00  0.00  0.96  0.00  0.00  0.00  0.00  0.00
  YS02001622YS02001625    1.00   0.04  0.00  0.00  0.96  0.00  0.00  0.00  0.03  0.00
  YS02001625YS02001629    1.00   0.04  0.01  0.00  0.95  0.00  0.01  0.00  0.00  0.00
  YS02163301YS02001633    1.00   0.00  0.04  0.00  0.96  0.00  0.00  0.00  0.00  0.00
  YS02163601YS02164001    1.00   0.00  0.03  0.00  0.97  0.00  0.00  0.00  0.00  0.00
  YS02164001YS02001641    1.00   0.01  0.02  0.00  0.97  0.00  0.00  0.00  0.06  0.00
  YS02001641YS02001644    1.00   0.00  0.01  0.00  0.99  0.00  0.00  0.00  0.00  0.00
  YS02001647YS02001649    1.00   0.00  0.04  0.00  0.96  0.00  0.00  0.00  0.01  0.00
  YS02006553YS02006556    1.00   0.01  0.00  0.00  0.99  0.00  0.00  0.00  0.03  0.00
  YS02006556YS02006558    1.00   0.00  0.00  0.00  1.00  0.00  0.00  0.00  0.00  0.00
  YSB6556YSB1171          1.00   0.02  0.01  0.00  0.96  0.00  0.00  0.00  0.00  0.00
  YS02001907YS02006553    1.00   0.00  0.02  0.00  0.98  0.00  0.00  0.00  0.00  0.00
  YS02006558YS02006561    1.00   0.04  0.00  0.00  0.41  0.55  0.00  0.00  0.34  0.00
  YS02001633YS02163601    1.00   0.00  0.01  0.00  0.99  0.00  0.00  0.00  0.15  0.00
  YS02001644YS02001647    1.00   0.00  0.04  0.00  0.96  0.00  0.00  0.00  0.00  0.00
  YS02001745YS02001748    1.00   0.00  0.00  0.00  0.94  0.00  0.00  0.06  0.00  0.00
  YS02001748YS02001751    1.00   0.00  0.00  0.00  0.99  0.01  0.00  0.00  0.13  0.00
  YS02001751YS02001754    1.00   0.00  0.00  0.00  0.95  0.00  0.00  0.04  0.01  0.00
  YS02001754YS02001757    1.00   0.00  0.00  0.00  0.99  0.01  0.00  0.00  0.16  0.00
  YS02001882YS02001884    1.00   0.04  0.00  0.00  0.96  0.00  0.00  0.00  0.00  0.00
  YS02001884YS02001887    1.00   0.03  0.01  0.00  0.97  0.00  0.00  0.00  0.00  0.00
  YS02001890YS02001895    1.00   0.00  0.04  0.00  0.96  0.00  0.00  0.00  0.00  0.00
  YS02001895YS02001898    1.00   0.04  0.00  0.00  0.96  0.00  0.00  0.00  0.00  0.00
  YS02001898YS02001901    1.00   0.04  0.00  0.00  0.96  0.00  0.00  0.00  0.00  0.00
  YS02001901YS02001904    1.00   0.04  0.00  0.00  0.96  0.00  0.00  0.00  0.00  0.00
  YS02001904YS02001907    1.00   0.00  0.04  0.00  0.96  0.00  0.00  0.00  0.00  0.00
  YS02001887YS02001890    1.00   0.00  0.00  0.00  0.98  0.00  0.02  0.00  0.00  0.00
  YS02001652YS02001649    1.00   0.00  0.00  0.00  1.00  0.00  0.00  0.00  0.15  0.00
  YS02001655YS02001652    1.00   0.00  0.00  0.00  0.95  0.00  0.00  0.04  0.01  0.00
  YS02001658YS02001655    1.00   0.00  0.04  0.00  0.95  0.01  0.00  0.00  0.01  0.00
  YS02001661YS02001658    1.00   0.04  0.00  0.00  0.94  0.02  0.00  0.00  0.00  0.00
  YS02001664YS02001661    1.00   0.04  0.00  0.00  0.94  0.03  0.00  0.00  0.07  0.00
  YSB1154YSB6556          1.00   0.04  0.00  0.00  0.96  0.00  0.00  0.00  0.01  0.00
  YSB1174YSB1171          1.00   0.03  0.01  0.00  0.97  0.00  0.00  0.00  0.00  0.00
  YSB1171HS02004479       1.00   0.02  0.00  0.00  0.97  0.00  0.00  0.00  0.10  0.00
  HS02004881HS02006253    1.00   0.03  0.00  0.00  0.77  0.01  0.00  0.20  0.64  0.00
  YS02001793JiankangQianchi    1.00   0.00  0.00  0.00  0.73  0.27  0.00  0.00  0.17  0.00
  YS02001757CaochengTiaoxuchi    1.00   0.00  0.05  0.00  0.90  0.05  0.00  0.00  0.00  0.00
  WSF200WS02003060        1.00   0.00  0.04  0.00  0.42  0.55  0.00  0.00  0.19  0.00
  1                       1.00   0.00  0.00  0.00  0.00  1.00  0.00  0.00  0.41  0.00
  2                       1.00   0.49  0.00  0.00  0.00  0.51  0.00  0.00  0.09  0.00
  3                       1.00   0.08  0.00  0.00  0.01  0.91  0.00  0.00  0.22  0.00
  4                       1.00   1.00  0.00  0.00  0.00  0.00  0.00  0.00  0.00  0.00
  
  
  *************************
  Conduit Surcharge Summary
  *************************
  
  ----------------------------------------------------------------------------
                                                           Hours        Hours 
                         --------- Hours Full --------   Above Full   Capacity
  Conduit                Both Ends  Upstream  Dnstream   Normal Flow   Limited
  ----------------------------------------------------------------------------
  WS02006229WS02006228        3.19      3.39      3.19      4.76         3.19
  WS02006256WS02006235        6.52      6.52      7.69      3.18         0.01
  WS02006253WS02006251        0.38      0.38      0.63      0.01         0.01
  WS02006252WS02006251        1.04      1.04      2.23      1.93         0.01
  WS02006251WS02006249        0.17      0.44      0.17      1.64         0.17
  WS02006249WS02006248        0.14      0.15      0.17      4.20         0.01
  WS02006248WS02006247        0.19      0.19      0.89      0.01         0.01
  WS02006247WS02006245        0.90      1.05      0.90      4.87         0.70
  WS02006245WS02006243        1.09      1.09      1.50      0.01         0.01
  WS02006243WS02006242        1.74      1.74      2.43      0.01         0.01
  WS02006242WS02006240        1.84      1.84      2.90      1.51         0.01
  WS02006240WS02006239        1.90      1.90      1.99      0.01         0.01
  WS02006239WS02006238        2.83      2.83      3.02      0.01         0.03
  WS02006238WS02006235        2.88      2.88      3.36      0.01         0.02
  WS02006235WS02006234        1.88      1.88      2.64      6.15         0.15
  WS02006234WS02006232        2.04      2.04      3.45      0.01         0.01
  WS02006232WS02006231        1.81      1.81      3.45      0.01         0.01
  WS02006231WS02006230        1.77      1.77      1.83      6.29         0.13
  WS02006230WS02006229        3.89      4.57      3.89      6.53         3.73
  WS02006228WS02006109        3.29      3.75      3.29      5.39         3.29
  WS02006116WS02004401        1.32      1.32      1.36      0.94         0.92
  WS02006115WS02006116        0.70      0.70      0.73      0.46         0.45
  WS02006113WS02006111        0.01      0.01      0.01      0.18         0.01
  WS02006112WS02006115        0.61      0.61      1.99      0.01         0.01
  WS02006111WS02006112        0.01      0.01      4.92      0.01         0.01
  WS02006110WS02006113        0.01      0.01      3.58      0.01         0.01
  WS02006109WS02006110        1.90      1.90      3.75      1.90         0.01
  WS02004411WS02004412        0.01      0.01      0.01      1.23         0.01
  WS02004401WS02004402        1.36      1.36      1.61      0.26         0.26
  WS02004413WS02003067        0.01      0.01      0.08      0.01         0.01
  WS02004412WS02004413        0.01      0.01      0.08      0.01         0.01
  WS02004410WS02004411        0.01      0.01      0.01      0.88         0.01
  WS02004409WS02004410        0.01      0.01      0.01      0.52         0.01
  WS02004406WS02004407        0.01      0.01      1.75      0.01         0.01
  WS02004405WS02004406        1.75      1.76      1.75      1.94         1.74
  WS02004404WS02004405        1.76      1.78      1.76      6.43         1.76
  WS02004403WS02004404        1.69      1.69      1.78      0.01         0.01
  WS02004402WS02004403        1.61      1.61      1.69      1.28         1.27
  WS02003072WS02003073        0.01      0.01      0.01      5.53         0.01
  HS02004876HS02004881        0.01      0.01      0.01      0.86         0.01
  HS02004817HS02004824        0.01      0.01      0.32      0.01         0.01
  HS02004785HS02004788        0.01      0.01      0.01      0.81         0.01
  HS02004480HS02004478        0.01      0.01      0.01      1.81         0.01
  HS02004817HS02004807        0.01      0.01      0.32      0.01         0.01
  YS02001759YS02001757        6.34      6.34      6.36      0.01         0.01
  YS02001762YS02001759        6.34      6.34      6.34      0.01         0.01
  YS02001765YS02001762        6.33      6.33      6.34      0.01         0.01
  YS02001770YS02001767        6.33      6.33      6.33      1.12         0.62
  YS02001774YS02001770        6.33      6.33      6.34      0.01         0.01
  YS02001779YS02001774        6.31      6.31      6.34      0.01         0.01
  YS02001649YS02001757        6.34      6.34      6.36      0.01         0.01
  YS02001767YS02001765        6.33      6.33      6.33      0.01         0.01
  YS02006561YS02001783        2.43      2.43      2.94      0.01         0.01
  YS02001783YS02001784        2.94      2.94      3.01      2.81         2.75
  YS02001784YS02001785        2.90      3.01      2.90      3.51         2.89
  YS02001788YS02001790        2.75      2.75      3.01      0.01         0.01
  YS02001790YS02001791        3.01      3.01      3.05      2.33         2.17
  YS02001791YS02001793        3.05      3.05      3.46      0.01         0.01
  YS02001910YS02001907        2.74      2.74      3.03      0.01         0.01
  YS02001786YS02001788        2.75      2.90      2.75      3.27         2.75
  YS02001915YS02001910        2.56      2.56      2.74      0.01         0.01
  YS02001918YS02001915        2.33      2.33      2.56      0.01         0.01
  YS02001923YS02001920        2.16      2.16      2.37      0.01         0.01
  YS02001926YS02001923        0.01      0.01      0.01      0.01         0.01
  YS02001929YS02001926        0.01      0.01      0.01      0.01         0.01
  YS02001920YS02001918        2.33      2.33      2.37      0.01         0.01
  YS02001629YS02163301        6.33      6.33      6.33      0.01         0.01
  YS02001619YS02001622        6.31      6.31      6.31      0.01         0.01
  YS02001622YS02001625        6.31      6.31      6.32      0.01         0.01
  YS02001625YS02001629        6.31      6.31      6.32      0.01         0.01
  YS02163301YS02001633        6.33      6.33      6.33      0.01         0.01
  YS02163601YS02164001        6.33      6.33      6.34      0.01         0.01
  YS02164001YS02001641        6.33      6.33      6.33      0.01         0.02
  YS02001641YS02001644        6.33      6.33      6.34      3.05         3.07
  YS02001647YS02001649        6.32      6.32      6.34      0.01         0.01
  YS02006553YS02006556        2.90      2.90      3.08      0.01         0.01
  YS02006556YS02006558        2.96      2.96      3.13      0.01         0.01
  YSB6556YSB1171              0.01      0.01      0.43      0.01         0.01
  YS02001907YS02006553        3.53      3.53      3.72      0.01         0.01
  YS02006558YS02006561        2.60      2.88      2.60      3.40         2.60
  YS02001633YS02163601        6.33      6.33      6.34      0.01         0.01
  YS02001644YS02001647        6.32      6.32      6.34      0.01         0.01
  YS02001745YS02001748        0.39      0.39      6.28      0.01         0.01
  YS02001748YS02001751        6.29      6.29      6.30      0.01         0.01
  YS02001751YS02001754        6.30      6.30      6.31      0.01         0.01
  YS02001754YS02001757        6.31      6.31      6.36      0.01         0.01
  YS02001882YS02001884        2.57      2.57      2.60      0.01         0.01
  YS02001884YS02001887        2.65      2.65      2.68      0.01         0.01
  YS02001890YS02001895        2.55      2.55      2.76      0.01         0.01
  YS02001895YS02001898        2.53      2.53      2.55      0.01         0.01
  YS02001898YS02001901        2.55      2.55      2.64      0.01         0.01
  YS02001901YS02001904        2.63      2.63      2.64      0.01         0.01
  YS02001904YS02001907        2.63      2.63      3.10      0.01         0.01
  YS02001887YS02001890        2.71      2.71      2.73      1.55         0.01
  YS02001652YS02001649        6.32      6.32      6.34      0.01         0.01
  YS02001655YS02001652        6.30      6.30      6.31      0.01         0.01
  YS02001658YS02001655        6.29      6.29      6.30      0.01         0.01
  YS02001661YS02001658        1.13      1.13      6.29      0.01         0.01
  YS02001664YS02001661        0.01      0.01      2.59      0.01         0.01
  YSB1174YSB1171              0.01      0.01      0.16      0.01         0.01
  YS02001793JiankangQianchi        3.39      3.39      4.77      0.01         0.01
  YS02001757CaochengTiaoxuchi        5.84      5.84      6.36      0.01         0.01
  3                           0.05      0.09      0.13      0.13         0.05
  
  
  ***************
  Pumping Summary
  ***************
  
  ---------------------------------------------------------------------------------------------------------
                                                  Min       Avg       Max     Total     Power    % Time Off
                        Percent   Number of      Flow      Flow      Flow    Volume     Usage    Pump Curve
  Pump                 Utilized   Start-Ups       LPS       LPS       LPS  10^6 ltr     Kw-hr    Low   High
  ---------------------------------------------------------------------------------------------------------
  CC-Pump-1               64.81           6      0.00    144.48    200.00     2.621      3.03    0.0    5.2
  CC-Pump-2               62.69           8      0.00    128.10    200.00     2.256      2.66    0.0    5.4
  JK-Pump-1               85.09           4      0.00    197.15    300.00     4.104     38.08    0.0    0.0
  JK-Pump-2               82.98           6      0.00    204.74    300.00     3.904     44.32    0.0    0.0
  XR-Pump-1               74.45           8      0.00     69.09     95.00     1.539      9.59    0.0    0.0
  XR-Pump-2               68.08          10      0.00     63.45     95.00     1.254      7.66    0.0    0.0
  XR-Pump-3               85.08          11      0.00     61.94     95.00     1.567      9.07    0.0    0.0
  XR-Pump-4               61.68           8      0.00     60.56     95.00     1.054      5.87    0.0    0.0
  

  Analysis begun on:  Fri Jan  7 20:46:53 2022
  Analysis ended on:  Fri Jan  7 20:46:57 2022
  Total elapsed time: 00:00:04