
  EPA STORM WATER MANAGEMENT MODEL - VERSION 5.1 (Build 5.3.0.dev0)
  --------------------------------------------------------------

  WARNING 04: minimum elevation drop used for Conduit WS02004404WS02004405
  WARNING 03: negative offset ignored for Link YS02001904YS02001907
  
  *********************************************************
  NOTE: The summary statistics displayed in this report are
  based on results found at every computational time step,  
  not just on results from each reporting time step.
  *********************************************************
  
  ****************
  Analysis Options
  ****************
  Flow Units ............... LPS
  Process Models:
    Rainfall/Runoff ........ YES
    RDII ................... NO
    Snowmelt ............... NO
    Groundwater ............ NO
    Flow Routing ........... YES
    Ponding Allowed ........ NO
    Water Quality .......... NO
  Infiltration Method ...... HORTON
  Flow Routing Method ...... DYNWAVE
  Surcharge Method ......... EXTRAN
  Starting Date ............ 08/28/2015 08:00:00
  Ending Date .............. 08/28/2015 15:50:00
  Antecedent Dry Days ...... 8.0
  Report Time Step ......... 00:01:00
  Wet Time Step ............ 00:01:00
  Dry Time Step ............ 00:01:00
  Routing Time Step ........ 5.00 sec
  Variable Time Step ....... YES
  Maximum Trials ........... 8
  Number of Threads ........ 4
  Head Tolerance ........... 0.001500 m
  
  
  **************************        Volume         Depth
  Runoff Quantity Continuity     hectare-m            mm
  **************************     ---------       -------
  Total Precipitation ......         7.641        16.729
  Evaporation Loss .........         0.000         0.000
  Infiltration Loss ........         1.880         4.117
  Surface Runoff ...........         4.668        10.221
  Final Storage ............         1.093         2.393
  Continuity Error (%) .....        -0.013
  
  
  **************************        Volume        Volume
  Flow Routing Continuity        hectare-m      10^6 ltr
  **************************     ---------     ---------
  Dry Weather Inflow .......         0.616         6.165
  Wet Weather Inflow .......         4.667        46.670
  Groundwater Inflow .......         0.000         0.000
  RDII Inflow ..............         0.000         0.000
  External Inflow ..........         0.102         1.024
  External Outflow .........         2.036        20.364
  Flooding Loss ............         2.826        28.263
  Evaporation Loss .........         0.000         0.000
  Exfiltration Loss ........         0.000         0.000
  Initial Stored Volume ....         0.076         0.761
  Final Stored Volume ......         0.620         6.204
  Continuity Error (%) .....        -0.389
  
  
  *************************
  Highest Continuity Errors
  *************************
  Node HS02004842 (12.71%)
  Node YS02001884 (11.63%)
  Node HS02004817 (2.32%)
  Node YSB1171 (2.18%)
  Node YS02163301 (1.66%)
  
  
  ***************************
  Time-Step Critical Elements
  ***************************
  Link WS02006252WS02006251 (49.76%)
  Link 3 (40.86%)
  Link WS02006238WS02006235 (3.19%)
  Link WS02006280WS02006229 (1.01%)
  
  
  ********************************
  Highest Flow Instability Indexes
  ********************************
  Link YS02163601YS02164001 (44)
  Link YS02163301YS02001633 (43)
  Link YS02001629YS02163301 (43)
  Link YS02001619YS02001622 (43)
  Link YS02164001YS02001641 (41)
  
  
  *************************
  Routing Time Step Summary
  *************************
  Minimum Time Step           :     0.22 sec
  Average Time Step           :     0.77 sec
  Maximum Time Step           :     5.00 sec
  Percent in Steady State     :    -0.00
  Average Iterations per Step :     4.66
  Percent Not Converging      :    20.92
  
  
  ***************************
  Subcatchment Runoff Summary
  ***************************
  
  ------------------------------------------------------------------------------------------------------------------------------
                            Total      Total      Total      Total     Imperv       Perv      Total       Total     Peak  Runoff
                           Precip      Runon       Evap      Infil     Runoff     Runoff     Runoff      Runoff   Runoff   Coeff
  Subcatchment                 mm         mm         mm         mm         mm         mm         mm    10^6 ltr      LPS
  ------------------------------------------------------------------------------------------------------------------------------
  sub0                      16.73       0.00       0.00       0.97      14.29       0.20      14.50        0.01     3.66   0.867
  sub1                      16.73       0.00       0.00       1.58      13.63       0.26      13.89        0.09    24.51   0.830
  sub2                      16.73       0.00       0.00       5.80       9.63       0.39      10.02        0.09    22.91   0.599
  sub3                      16.73       0.00       0.00       5.88       9.59       0.31       9.90        0.22    50.49   0.592
  sub4                      16.73       0.00       0.00       1.65      13.47       0.19      13.66        0.28    60.01   0.817
  sub5                      16.73       0.00       0.00       0.99      14.24       0.18      14.42        0.16    43.61   0.862
  sub7                      16.73       0.00       0.00       1.26      13.97       0.24      14.21        0.05    13.82   0.849
  sub8                      16.73       0.00       0.00       1.27      13.96       0.23      14.19        0.09    25.44   0.848
  sub9                      16.73       0.00       0.00       1.27      13.96       0.23      14.19        0.07    19.02   0.848
  sub10                     16.73       0.00       0.00       1.13      14.10       0.21      14.30        0.16    42.73   0.855
  sub11                     16.73       0.00       0.00       1.12      14.11       0.21      14.33        0.17    47.25   0.857
  sub12                     16.73       0.00       0.00       1.83      13.37       0.35      13.71        0.12    35.87   0.820
  sub14                     16.73       0.00       0.00       1.27      13.95       0.23      14.19        0.14    37.43   0.848
  sub15                     16.73       0.00       0.00       4.53      10.73       0.49      11.22        0.19    51.47   0.671
  sub16                     16.73       0.00       0.00       4.88      10.29       0.64      10.93        0.11    32.57   0.653
  sub17                     16.73       0.00       0.00       4.74      10.44       0.61      11.05        0.09    26.81   0.661
  sub22                     16.73       0.00       0.00       6.60       8.75       0.59       9.34        0.59   160.16   0.558
  sub23                     16.73       0.00       0.00       5.59       9.67       0.60      10.27        0.49   134.74   0.614
  sub60                     16.73       0.00       0.00       1.94      11.65       0.06      11.71        3.55   386.89   0.700
  sub61                     16.73       0.00       0.00       2.75      11.65       0.09      11.73        3.62   476.87   0.701
  sub62                     16.73       0.00       0.00       1.26      12.72       0.07      12.79        3.93   491.27   0.765
  sub63                     16.73       0.00       0.00       4.75      10.14       0.10      10.23        3.10   437.54   0.612
  sub64                     16.73       0.00       0.00       2.45      11.19       0.06      11.26        3.42   367.58   0.673
  sub65                     16.73       0.00       0.00       2.11      11.40       0.06      11.46        3.52   372.98   0.685
  sub66                     16.73       0.00       0.00       4.79       9.55       0.06       9.61        2.95   336.52   0.575
  sub67                     16.73       0.00       0.00       1.24      13.25       0.09      13.35        4.12   605.48   0.798
  sub68                     16.73       0.00       0.00       2.25      12.20       0.10      12.30        3.78   521.64   0.735
  sub69                     16.73       0.00       0.00       2.37      12.50       0.14      12.64        2.95   482.20   0.755
  sub70                     16.73      12.90       0.00       8.98      17.16       1.09      18.25        4.18   460.88   0.616
  sub71                     16.73       0.00       0.00       1.27      12.46       0.07      12.53        2.96   345.19   0.749
  sub72                     16.73       0.00       0.00       1.14      10.39       0.03      10.43        2.12   185.81   0.623
  sub73                     16.73      17.77       0.00       9.78      19.72       1.38      21.10        4.96   482.28   0.612
  sub74                     16.73       0.00       0.00      12.48       3.71       0.07       3.78        1.51   261.10   0.226
  
  
  ******************
  Node Depth Summary
  ******************
  
  ---------------------------------------------------------------------------------
                                 Average  Maximum  Maximum  Time of Max    Reported
                                   Depth    Depth      HGL   Occurrence   Max Depth
  Node                 Type       Meters   Meters   Meters  days hr:min      Meters
  ---------------------------------------------------------------------------------
  WS02001211           JUNCTION     0.63     0.78     5.61     0  07:50        0.78
  WS02001212           JUNCTION     0.37     0.48     5.55     0  07:50        0.48
  WS02001213           JUNCTION     0.61     0.76     5.52     0  02:11        0.76
  WS02003069           JUNCTION     0.45     0.62     5.21     0  02:13        0.62
  WS02003072           JUNCTION     0.51     0.68     5.05     0  02:13        0.68
  WS02003073           JUNCTION     0.31     0.42     4.48     0  02:14        0.42
  WS02003060           JUNCTION     0.40     0.55     5.48     0  02:12        0.55
  WS02003066           JUNCTION     0.25     0.36     5.91     0  01:59        0.36
  WS02003059           JUNCTION     0.67     0.82     5.51     0  02:12        0.82
  WS02003067           JUNCTION     0.60     0.79     6.11     0  01:59        0.79
  WS02004401           JUNCTION     0.73     1.12     7.12     0  01:58        1.12
  WS02004402           JUNCTION     0.76     1.12     7.08     0  01:58        1.12
  WS02004403           JUNCTION     0.78     1.11     7.04     0  01:58        1.11
  WS02004404           JUNCTION     0.85     1.16     7.01     0  01:58        1.16
  WS02004406           JUNCTION     0.85     1.11     6.94     0  01:58        1.11
  WS02004409           JUNCTION     0.55     0.86     6.63     0  02:01        0.86
  WS02004410           JUNCTION     0.56     0.86     6.58     0  02:00        0.86
  WS02004411           JUNCTION     0.57     0.85     6.53     0  02:01        0.85
  WS02004412           JUNCTION     0.58     0.84     6.48     0  02:00        0.84
  WS02004413           JUNCTION     0.74     0.98     6.45     0  02:01        0.98
  WS02004405           JUNCTION     0.85     1.14     6.99     0  01:58        1.14
  WS02006109           JUNCTION     0.82     1.28     7.90     0  01:59        1.27
  WS02006110           JUNCTION     0.80     1.12     7.71     0  01:57        1.12
  WS02006111           JUNCTION     0.26     0.63     7.33     0  01:58        0.63
  WS02006112           JUNCTION     0.92     1.40     7.29     0  01:58        1.39
  WS02006113           JUNCTION     0.38     0.63     7.52     0  02:00        0.63
  WS02006115           JUNCTION     0.63     1.07     7.21     0  01:58        1.07
  WS02006116           JUNCTION     0.71     1.13     7.17     0  01:58        1.13
  WS02006230           JUNCTION     0.82     1.41     8.16     0  01:59        1.40
  WS02006231           JUNCTION     0.56     1.05     8.17     0  01:59        1.04
  WS02006232           JUNCTION     0.69     1.14     8.18     0  01:59        1.13
  WS02006234           JUNCTION     0.61     1.04     8.19     0  01:59        1.02
  WS02006235           JUNCTION     0.64     1.05     8.21     0  02:00        1.04
  WS02006238           JUNCTION     0.67     1.06     8.21     0  01:59        1.05
  WS02006240           JUNCTION     0.56     0.95     8.25     0  01:52        0.94
  WS02006242           JUNCTION     0.62     1.25     8.52     0  01:45        0.98
  WS02006243           JUNCTION     0.50     0.84     8.26     0  02:00        0.84
  WS02006245           JUNCTION     0.47     0.79     8.28     0  02:00        0.79
  WS02006247           JUNCTION     0.49     0.79     8.29     0  02:00        0.79
  WS02006248           JUNCTION     0.43     0.71     8.30     0  02:00        0.71
  WS02006249           JUNCTION     0.46     0.71     8.31     0  02:00        0.71
  WS02006239           JUNCTION     0.62     1.01     8.22     0  01:59        1.00
  WS02006251           JUNCTION     0.45     0.81     8.48     0  02:00        0.81
  WS02006252           JUNCTION     0.39     0.59     8.84     0  07:40        0.59
  WS02006253           JUNCTION     0.48     0.85     8.49     0  02:00        0.84
  WS02006256           JUNCTION     1.07     2.35     9.28     0  00:00        1.25
  WS02004138           JUNCTION     0.14     0.19     7.44     0  07:42        0.19
  WS02004407           JUNCTION     0.24     0.37     6.68     0  01:59        0.37
  WS02006228           JUNCTION     0.84     1.40     8.05     0  01:57        1.40
  WS02006229           JUNCTION     0.82     1.44     8.14     0  02:00        1.44
  WS02006280           JUNCTION     0.08     0.25     8.52     0  01:55        0.25
  WS02006284           JUNCTION     0.39     0.64     9.04     0  01:55        0.64
  WS02006287           JUNCTION     0.12     0.38     9.33     0  01:54        0.38
  WSF200               JUNCTION     0.24     0.39     5.62     0  01:57        0.39
  HS02004901           JUNCTION     0.14     0.36    10.18     0  01:52        0.36
  HS02004881           JUNCTION     0.01     0.05     9.08     0  01:54        0.05
  HS02004876           JUNCTION     0.05     0.16     9.19     0  01:55        0.16
  HS02004870           JUNCTION     0.02     0.09     9.38     0  01:55        0.09
  HS02004862           JUNCTION     0.03     0.11     9.49     0  01:55        0.11
  HS02004856           JUNCTION     0.09     0.15     9.58     0  01:55        0.15
  HS02004852           JUNCTION     0.02     0.07     9.59     0  01:55        0.07
  HS02004848           JUNCTION     0.02     0.07     9.67     0  01:55        0.07
  HS02004842           JUNCTION     0.34     0.40     9.67     0  01:55        0.40
  HS02004837           JUNCTION     0.03     0.09     9.67     0  01:55        0.09
  HS02004830           JUNCTION     0.05     0.10     9.57     0  01:56        0.10
  HS02004824           JUNCTION     0.03     0.12     9.53     0  01:55        0.12
  HS02004817           JUNCTION     0.46     0.69     9.53     0  01:55        0.69
  HS02004807           JUNCTION     0.15     0.36     9.53     0  01:55        0.36
  HS02004802           JUNCTION     0.18     0.39     9.52     0  01:55        0.39
  HS02004799           JUNCTION     0.15     0.45     9.66     0  01:53        0.45
  HS02004792           JUNCTION     0.05     0.20     9.73     0  01:52        0.20
  HS02004788           JUNCTION     0.04     0.15    10.05     0  01:53        0.15
  HS02004785           JUNCTION     0.06     0.23    10.14     0  01:52        0.23
  HS02004777           JUNCTION     0.17     0.37    10.17     0  01:52        0.37
  HS02004770           JUNCTION     0.14     0.35    10.18     0  01:52        0.35
  HS02004480           JUNCTION     0.10     0.37     9.61     0  01:53        0.37
  HS02004479           JUNCTION     0.14     0.41     9.61     0  01:53        0.41
  HS02004478           JUNCTION     0.08     0.27     9.50     0  01:54        0.27
  YS02001745           JUNCTION     0.77     0.94     8.45     0  02:54        0.94
  YS02001748           JUNCTION     1.18     1.51     8.58     0  01:50        1.37
  YS02001751           JUNCTION     1.37     1.75     8.63     0  01:48        1.56
  YS02001754           JUNCTION     1.62     1.84     8.45     0  02:51        1.83
  YS02001762           JUNCTION     1.83     2.05     8.45     0  02:43        2.03
  YS02001765           JUNCTION     1.78     1.99     8.44     0  02:48        1.98
  YS02001767           JUNCTION     1.74     1.95     8.44     0  02:46        1.93
  YS02001770           JUNCTION     1.74     1.92     8.42     0  02:44        1.92
  YS02001774           JUNCTION     1.81     1.98     8.41     0  02:34        1.97
  YS02001779           JUNCTION     1.55     1.68     8.37     0  01:47        1.68
  YS02001882           JUNCTION     0.73     1.73     8.44     0  01:54        1.62
  YS02001884           JUNCTION     0.82     1.81     8.42     0  01:54        1.73
  YS02001759           JUNCTION     1.86     2.08     8.44     0  02:43        2.07
  YS02001887           JUNCTION     0.90     1.85     8.38     0  01:54        1.80
  YS02001890           JUNCTION     0.93     1.81     8.32     0  01:54        1.81
  YS02001898           JUNCTION     0.69     1.69     8.43     0  01:54        1.56
  YS02001901           JUNCTION     0.81     1.78     8.39     0  01:54        1.67
  YS02001904           JUNCTION     0.79     1.71     8.34     0  01:54        1.63
  YS02001907           JUNCTION     1.12     1.96     8.25     0  01:54        1.96
  YS02001910           JUNCTION     0.91     2.06     8.57     0  01:54        1.81
  YS02001915           JUNCTION     0.71     1.92     8.64     0  01:54        1.64
  YS02001918           JUNCTION     0.44     1.81     8.88     0  01:57        1.37
  YS02001619           JUNCTION     1.33     1.61     8.54     0  01:47        1.48
  YS02001629           JUNCTION     1.69     1.85     8.40     0  01:47        1.85
  YS02001641           JUNCTION     1.79     1.94     8.37     0  01:52        1.94
  YS02001644           JUNCTION     1.79     1.92     8.35     0  01:51        1.92
  YS02001652           JUNCTION     1.64     2.16     8.76     0  02:19        1.93
  YS02001655           JUNCTION     1.40     2.20     9.05     0  02:23        1.77
  YS02001920           JUNCTION     0.54     2.13     9.14     0  01:57        1.47
  YS02001923           JUNCTION     0.36     2.03     9.29     0  01:57        1.26
  YS02001926           JUNCTION     0.38     1.90     9.35     0  01:57        1.09
  YS02001929           JUNCTION     0.24     0.93     8.63     0  01:57        0.86
  YS02001658           JUNCTION     1.12     2.21     9.35     0  02:24        1.58
  YS02001661           JUNCTION     0.88     2.46     9.86     0  02:24        1.44
  YS02001664           JUNCTION     0.39     0.56     8.49     0  03:25        0.56
  YS02001622           JUNCTION     1.35     1.62     8.52     0  01:48        1.49
  YS02001633           JUNCTION     1.78     1.95     8.40     0  02:08        1.94
  YS02001649           JUNCTION     1.83     2.05     8.44     0  01:54        2.05
  YS02001757           JUNCTION     1.96     2.18     8.44     0  02:48        2.17
  YS02001895           JUNCTION     0.69     1.64     8.39     0  01:54        1.56
  YS02001625           JUNCTION     1.64     1.78     8.38     0  01:46        1.78
  YS02163301           JUNCTION     1.72     1.89     8.41     0  01:50        1.88
  YS02163601           JUNCTION     1.83     1.99     8.39     0  02:34        1.99
  YS02164001           JUNCTION     1.77     1.92     8.38     0  01:51        1.91
  YS02001647           JUNCTION     1.62     1.81     8.42     0  02:10        1.79
  YSB1154              JUNCTION     0.28     0.56     9.62     0  01:53        0.56
  YSB6556              JUNCTION     0.17     0.44     9.61     0  01:53        0.44
  YSB1174              JUNCTION     0.23     0.50     9.61     0  01:53        0.50
  YSB1171              JUNCTION     0.43     0.71     9.61     0  01:53        0.71
  YS02006553           JUNCTION     1.12     2.17     8.45     0  01:54        1.96
  YS02006561           JUNCTION     0.45     1.95     8.61     0  01:54        1.08
  YS02006556           JUNCTION     1.08     2.36     8.67     0  01:54        1.92
  YS02006558           JUNCTION     1.12     2.48     8.75     0  01:54        1.97
  YS02001783           JUNCTION     0.72     2.35     8.49     0  01:54        1.47
  YS02001784           JUNCTION     0.72     2.27     8.34     0  01:54        1.41
  YS02001786           JUNCTION     0.66     2.23     8.26     0  01:54        1.26
  YS02001788           JUNCTION     0.59     2.28     8.26     0  01:54        1.13
  YS02001790           JUNCTION     0.74     1.96     7.60     0  01:53        1.29
  YS02001791           JUNCTION     0.75     2.72     8.19     0  05:22        1.27
  YS02001793           JUNCTION     1.07     3.18     8.01     0  01:52        1.80
  WS02004139           JUNCTION     0.57     0.72     5.63     0  07:50        0.72
  WSC                  OUTFALL      0.31     0.42     1.09     0  02:14        0.42
  3                    OUTFALL      0.10     0.24     6.24     0  02:00        0.24
  4                    OUTFALL      0.04     0.21     7.21     0  02:00        0.21
  5                    OUTFALL      0.00     0.00     5.00     0  00:00        0.00
  JK-storage           STORAGE      3.91     5.80     6.60     0  01:54        5.80
  CC-storage           STORAGE      1.16     1.43     8.43     0  02:53        1.43
  XR-storage           STORAGE      7.55     7.72     5.72     0  01:54        7.72
  
  
  *******************
  Node Inflow Summary
  *******************
  
  -------------------------------------------------------------------------------------------------
                                  Maximum  Maximum                  Lateral       Total        Flow
                                  Lateral    Total  Time of Max      Inflow      Inflow     Balance
                                   Inflow   Inflow   Occurrence      Volume      Volume       Error
  Node                 Type           LPS      LPS  days hr:min    10^6 ltr    10^6 ltr     Percent
  -------------------------------------------------------------------------------------------------
  WS02001211           JUNCTION      7.35   386.86     0  07:50       0.207        5.95       0.753
  WS02001212           JUNCTION      0.00   385.88     0  07:50           0        5.91       0.401
  WS02001213           JUNCTION      0.00   385.02     0  07:50           0        5.89       0.470
  WS02003069           JUNCTION      0.32  1052.00     0  02:13     0.00902        15.4       0.240
  WS02003072           JUNCTION      0.00  1051.55     0  02:13           0        15.3       0.281
  WS02003073           JUNCTION      1.82  1053.24     0  02:14      0.0514        15.3       0.325
  WS02003060           JUNCTION     16.53  1051.70     0  02:12       0.466        15.4       0.227
  WS02003066           JUNCTION      0.00   819.57     0  02:01           0        9.11       0.055
  WS02003059           JUNCTION      0.00   383.73     0  07:50           0        5.86       0.781
  WS02003067           JUNCTION      0.00   819.51     0  02:01           0        9.12       0.112
  WS02004401           JUNCTION      0.00   819.52     0  01:59           0        9.38       0.257
  WS02004402           JUNCTION      0.00   819.52     0  01:59           0        9.35       0.240
  WS02004403           JUNCTION      0.00   819.52     0  01:59           0        9.33       0.215
  WS02004404           JUNCTION      0.16   819.69     0  01:59     0.00457        9.32       0.158
  WS02004406           JUNCTION      0.00   819.72     0  01:59           0        9.28       0.386
  WS02004409           JUNCTION      0.00   819.72     0  01:59           0        9.24       0.209
  WS02004410           JUNCTION      0.00   819.57     0  02:00           0        9.22       0.232
  WS02004411           JUNCTION      0.00   819.52     0  02:00           0         9.2       0.235
  WS02004412           JUNCTION      0.00   819.51     0  02:01           0        9.17       0.249
  WS02004413           JUNCTION      0.00   819.51     0  02:01           0        9.15       0.364
  WS02004405           JUNCTION      0.04   819.72     0  01:59     0.00107         9.3       0.239
  WS02006109           JUNCTION      1.23   796.95     0  02:00      0.0347        9.42       0.237
  WS02006110           JUNCTION      0.00   796.93     0  02:00           0         9.4       0.232
  WS02006111           JUNCTION      0.00   796.80     0  02:00           0        9.37       0.056
  WS02006112           JUNCTION     26.81   819.61     0  01:59      0.0948        9.45       0.323
  WS02006113           JUNCTION      0.00   796.90     0  02:00           0        9.38       0.125
  WS02006115           JUNCTION      0.00   819.61     0  01:59           0        9.42       0.254
  WS02006116           JUNCTION      0.00   819.52     0  01:59           0         9.4       0.241
  WS02006230           JUNCTION     10.28   398.90     0  03:50        0.29        6.74       0.236
  WS02006231           JUNCTION      0.00   388.59     0  03:50           0        6.46       0.213
  WS02006232           JUNCTION      0.00   388.59     0  03:50           0        6.48       0.277
  WS02006234           JUNCTION      0.00   389.40     0  06:11           0        6.49       0.159
  WS02006235           JUNCTION      0.00   392.72     0  04:12           0         6.6       0.184
  WS02006238           JUNCTION      0.00   329.45     0  03:20           0        4.79       0.185
  WS02006240           JUNCTION      0.00   332.45     0  04:40           0         4.8       0.332
  WS02006242           JUNCTION      0.00   335.98     0  04:41           0        4.81       0.395
  WS02006243           JUNCTION      0.00   336.29     0  04:41           0        4.81       0.051
  WS02006245           JUNCTION      0.00   341.86     0  06:41           0        4.82       0.358
  WS02006247           JUNCTION      0.00   348.08     0  06:41           0        4.83       0.234
  WS02006248           JUNCTION      0.00   353.69     0  03:00           0        4.84       0.137
  WS02006249           JUNCTION      0.00   531.82     0  02:00           0        5.75       0.285
  WS02006239           JUNCTION      0.00   331.21     0  03:20           0        4.79       0.297
  WS02006251           JUNCTION      0.08   532.55     0  02:00     0.00217         5.8       0.242
  WS02006252           JUNCTION      0.00   400.00     0  03:40           0        5.23       0.010
  WS02006253           JUNCTION      3.66   142.87     0  01:54      0.0117       0.574       1.421
  WS02006256           JUNCTION      0.00   624.92     0  02:00           0        6.03       0.038
  WS02004138           JUNCTION      0.00   380.00     0  07:40           0        5.78       0.073
  WS02004407           JUNCTION      0.00   819.73     0  01:58           0        9.24       0.094
  WS02006228           JUNCTION      0.00   795.71     0  02:00           0         9.4       0.174
  WS02006229           JUNCTION      0.00   795.91     0  02:00           0        9.42       0.150
  WS02006280           JUNCTION      0.00   656.04     0  01:55           0         2.7       0.004
  WS02006284           JUNCTION      0.10   655.96     0  01:55      0.0027         2.7       0.039
  WS02006287           JUNCTION      0.00   655.81     0  01:54           0         2.7       0.027
  WSF200               JUNCTION      0.00   819.66     0  02:01           0         9.1       0.053
  HS02004901           JUNCTION     32.57    32.57     0  01:50       0.114       0.115       1.559
  HS02004881           JUNCTION     13.82   139.59     0  01:54      0.0479       0.529       0.082
  HS02004876           JUNCTION     24.51   126.37     0  01:54      0.0923       0.482       0.114
  HS02004870           JUNCTION     25.44   102.13     0  01:54      0.0907        0.39       0.027
  HS02004862           JUNCTION     23.11    77.53     0  01:55       0.099       0.299       0.058
  HS02004856           JUNCTION     19.02    54.51     0  01:55      0.0682       0.202       0.719
  HS02004852           JUNCTION      0.00    36.10     0  01:55           0       0.134       0.042
  HS02004848           JUNCTION     50.49    50.49     0  01:57       0.223       0.223       0.020
  HS02004842           JUNCTION      0.00    15.55     0  02:06           0       0.102      14.562
  HS02004837           JUNCTION     49.08    62.50     0  01:55       0.337       0.426       0.191
  HS02004830           JUNCTION      0.15    62.61     0  01:55     0.00423       0.416       0.297
  HS02004824           JUNCTION     60.06   122.20     0  01:58       0.286       0.702       0.077
  HS02004817           JUNCTION      0.60   124.03     0  01:59      0.0169       0.718       2.378
  HS02004807           JUNCTION     47.25   168.28     0  01:57       0.166       0.868       0.499
  HS02004802           JUNCTION      0.00   169.24     0  01:58           0       0.864       0.460
  HS02004799           JUNCTION     37.43   414.53     0  01:52       0.135        1.57       0.166
  HS02004792           JUNCTION    160.44   377.30     0  01:52       0.598        1.44       0.028
  HS02004788           JUNCTION     53.14   218.54     0  01:52        0.24       0.839       0.046
  HS02004785           JUNCTION      0.15   165.59     0  01:52     0.00423       0.601       0.082
  HS02004777           JUNCTION      0.03   165.80     0  01:51    0.000846       0.601       0.872
  HS02004770           JUNCTION    134.74   166.64     0  01:51        0.49       0.602       0.515
  HS02004480           JUNCTION      0.00   492.23     0  01:53           0        1.85       0.065
  HS02004479           JUNCTION      0.00    78.00     0  01:53           0       0.292       0.252
  HS02004478           JUNCTION      0.00   655.76     0  01:54           0         2.7       0.013
  YS02001745           JUNCTION    386.89   386.89     0  02:16        3.55        3.55       0.273
  YS02001748           JUNCTION      0.04   397.28     0  02:16     0.00127        3.54       0.653
  YS02001751           JUNCTION      0.01   397.37     0  02:16     0.00031        3.52       0.682
  YS02001754           JUNCTION      0.26   397.48     0  02:16     0.00733         3.5       0.702
  YS02001762           JUNCTION      0.00   438.78     0  02:04           0        2.12       0.997
  YS02001765           JUNCTION      0.00   438.87     0  02:04           0        2.12       1.153
  YS02001767           JUNCTION      0.54   438.77     0  02:04      0.0151        2.15       1.686
  YS02001770           JUNCTION    491.42   654.96     0  02:56        3.94        4.37       0.719
  YS02001774           JUNCTION      0.00   654.98     0  02:56           0        2.65       0.946
  YS02001779           JUNCTION      0.01   655.00     0  02:56    0.000141        2.62       0.589
  YS02001882           JUNCTION      0.00    24.63     0  01:50           0      0.0186      14.610
  YS02001884           JUNCTION      0.00    48.88     0  01:52           0      0.0538      13.156
  YS02001759           JUNCTION    476.91   876.20     0  02:05        3.62        5.28       0.432
  YS02001887           JUNCTION    605.93   606.09     0  02:15        4.13        4.16       0.206
  YS02001890           JUNCTION      0.00   606.28     0  02:15           0        4.11       0.229
  YS02001898           JUNCTION      0.00   517.18     0  02:15           0           4       0.075
  YS02001901           JUNCTION      0.00   517.24     0  02:15           0           4       0.182
  YS02001904           JUNCTION      0.00   517.20     0  02:19           0        3.99       0.163
  YS02001907           JUNCTION      0.00  1145.06     0  01:58           0        9.13       0.266
  YS02001910           JUNCTION      0.00   631.89     0  01:58           0        5.16       0.229
  YS02001915           JUNCTION    345.21   631.69     0  01:58        2.96        5.21       0.123
  YS02001918           JUNCTION      0.00   361.07     0  01:58           0        2.28       0.089
  YS02001619           JUNCTION    336.52   336.52     0  02:16        2.95        2.95       0.416
  YS02001629           JUNCTION      0.00   229.86     0  01:47           0        1.44       2.022
  YS02001641           JUNCTION      0.00   418.43     0  01:51           0        4.86       0.433
  YS02001644           JUNCTION    367.62  1465.02     0  02:55        3.42        12.2       0.212
  YS02001652           JUNCTION      0.00   475.28     0  02:14           0        3.05       0.749
  YS02001655           JUNCTION      0.15   475.46     0  02:12     0.00434        3.08       0.827
  YS02001920           JUNCTION      2.87   360.92     0  01:58      0.0809        2.27       0.141
  YS02001923           JUNCTION      0.04   300.40     0  01:57     0.00106        2.17       0.041
  YS02001926           JUNCTION      0.05   346.99     0  01:57     0.00147        2.14       0.144
  YS02001929           JUNCTION    185.81   218.86     0  01:56        2.12        2.13       0.031
  YS02001658           JUNCTION      0.00   488.76     0  02:08           0         3.1       0.765
  YS02001661           JUNCTION      0.00   774.23     0  02:07           0        3.76      -0.106
  YS02001664           JUNCTION    437.54   437.54     0  02:16         3.1        3.76       0.137
  YS02001622           JUNCTION      0.00   336.80     0  02:16           0        2.94       1.093
  YS02001633           JUNCTION    373.18   418.67     0  01:51        3.53        4.92       0.652
  YS02001649           JUNCTION      0.00   969.43     0  02:00           0        6.47       0.571
  YS02001757           JUNCTION      0.00  2142.75     0  02:04           0        10.7       0.864
  YS02001895           JUNCTION      0.00   517.16     0  02:06           0           4       0.134
  YS02001625           JUNCTION      0.00   336.55     0  02:16           0        2.91       1.360
  YS02163301           JUNCTION      0.00   228.27     0  01:48           0        1.44       1.688
  YS02163601           JUNCTION      0.11   418.41     0  01:51      0.0031        4.87       0.617
  YS02164001           JUNCTION      0.00   418.27     0  01:51           0        4.85       0.410
  YS02001647           JUNCTION      0.00   740.69     0  02:55           0        5.45       0.520
  YSB1154              JUNCTION     43.61    43.61     0  01:53       0.163       0.164       0.888
  YSB6556              JUNCTION      0.00    43.64     0  01:53           0       0.165       0.765
  YSB1174              JUNCTION     35.87    35.87     0  01:50        0.12        0.12       1.078
  YSB1171              JUNCTION      0.00    78.04     0  01:52           0       0.291       2.227
  YS02006553           JUNCTION      0.00   683.40     0  03:22           0        7.12       0.218
  YS02006561           JUNCTION      0.00   974.42     0  01:54           0        10.9       0.007
  YS02006556           JUNCTION      0.00   683.53     0  03:22           0        7.12       0.160
  YS02006558           JUNCTION    522.52   974.21     0  01:54        3.81        10.9       0.050
  YS02001783           JUNCTION      0.00   968.39     0  02:13           0        10.9       0.024
  YS02001784           JUNCTION      1.06   969.48     0  02:15      0.0299        10.9       0.036
  YS02001786           JUNCTION      0.06   969.42     0  02:15     0.00159        10.9       0.032
  YS02001788           JUNCTION      0.07   969.47     0  02:15       0.002        10.9       0.019
  YS02001790           JUNCTION      0.15   969.74     0  02:15     0.00437        10.9       0.024
  YS02001791           JUNCTION      0.00   969.70     0  02:15           0        10.9       0.007
  YS02001793           JUNCTION      0.00   969.85     0  02:15           0        10.9      -0.004
  WS02004139           JUNCTION      0.32   380.32     0  07:42     0.00905        5.79       0.735
  WSC                  OUTFALL       0.00  1053.00     0  02:14           0        15.3       0.000
  3                    OUTFALL       0.00   624.83     0  02:00           0         4.2       0.000
  4                    OUTFALL       0.00   352.37     0  02:00           0       0.892       0.000
  5                    OUTFALL       0.00     0.00     0  00:00           0           0       0.000 ltr
  JK-storage           STORAGE       0.00   993.88     0  01:52           0          11      -1.582
  CC-storage           STORAGE       0.00  2142.66     0  02:04           0        8.62       0.702
  XR-storage           STORAGE     844.69   844.69     0  03:01        12.1        12.7      -0.001
  
  
  **********************
  Node Surcharge Summary
  **********************
  
  Surcharging occurs when water rises above the top of the highest conduit.
  ---------------------------------------------------------------------
                                               Max. Height   Min. Depth
                                   Hours       Above Crown    Below Rim
  Node                 Type      Surcharged         Meters       Meters
  ---------------------------------------------------------------------
  WS02004401           JUNCTION        0.53          0.120        1.540
  WS02004402           JUNCTION        0.57          0.121        1.619
  WS02004403           JUNCTION        0.57          0.109        1.921
  WS02004404           JUNCTION        0.91          0.161        2.619
  WS02004406           JUNCTION        0.75          0.109        2.341
  WS02004405           JUNCTION        0.82          0.141        2.659
  WS02006109           JUNCTION        2.93          0.461        1.359
  WS02006110           JUNCTION        1.30          0.214        1.636
  WS02006112           JUNCTION        1.52          0.403        1.277
  WS02006115           JUNCTION        0.30          0.065        2.185
  WS02006116           JUNCTION        0.34          0.071        2.219
  WS02006230           JUNCTION        0.88          0.330        1.240
  WS02006231           JUNCTION        1.08          0.337        1.193
  WS02006232           JUNCTION        3.11          0.444        1.036
  WS02006234           JUNCTION        1.23          0.316        0.924
  WS02006235           JUNCTION        2.04          0.336        0.954
  WS02006238           JUNCTION        2.52          0.345        1.085
  WS02006240           JUNCTION        1.14          0.243        1.147
  WS02006242           JUNCTION        2.09          0.524        0.296
  WS02006243           JUNCTION        0.62          0.133        0.637
  WS02006245           JUNCTION        0.27          0.084        0.766
  WS02006247           JUNCTION        0.27          0.080        0.680
  WS02006239           JUNCTION        1.46          0.272        1.018
  WS02006252           JUNCTION        2.79          0.193        0.907
  WS02006256           JUNCTION        0.01          1.050        0.000
  WS02006228           JUNCTION        2.76          0.573        1.627
  YS02001748           JUNCTION        5.99          0.427        0.763
  YS02001751           JUNCTION        6.02          0.752        0.448
  YS02001754           JUNCTION        6.04          0.791        0.359
  YS02001762           JUNCTION        6.08          1.046        0.104
  YS02001765           JUNCTION        6.08          0.990        0.110
  YS02001767           JUNCTION        6.07          0.947        0.083
  YS02001770           JUNCTION        6.07          0.894        0.026
  YS02001774           JUNCTION        6.08          0.983        0.067
  YS02001779           JUNCTION        6.04          0.680        0.000
  YS02001882           JUNCTION        1.76          0.729        0.101
  YS02001884           JUNCTION        1.79          0.747        0.123
  YS02001759           JUNCTION        6.09          1.081        0.129
  YS02001887           JUNCTION        1.87          0.796        0.154
  YS02001890           JUNCTION        1.90          0.760        0.000
  YS02001898           JUNCTION        1.72          0.661        0.079
  YS02001901           JUNCTION        1.84          0.784        0.086
  YS02001904           JUNCTION        1.81          0.706        0.144
  YS02001907           JUNCTION        2.26          0.950        0.000
  YS02001910           JUNCTION        1.94          1.062        0.038
  YS02001915           JUNCTION        1.75          0.923        0.077
  YS02001918           JUNCTION        1.53          0.810        0.000
  YS02001619           JUNCTION        6.02          0.610        0.000
  YS02001629           JUNCTION        6.02          0.470        0.000
  YS02001641           JUNCTION        6.08          0.937        0.163
  YS02001644           JUNCTION        6.08          0.920        0.000
  YS02001652           JUNCTION        6.05          1.130        0.000
  YS02001655           JUNCTION        6.02          1.200        0.000
  YS02001920           JUNCTION        1.56          1.132        0.008
  YS02001923           JUNCTION        0.01          0.820        0.000
  YS02001926           JUNCTION        0.01          0.900        0.000
  YS02001658           JUNCTION        5.99          1.211        0.089
  YS02001661           JUNCTION        0.25          1.390        0.000
  YS02001622           JUNCTION        6.02          0.620        0.000
  YS02001633           JUNCTION        6.08          0.927        0.133
  YS02001649           JUNCTION        6.08          1.050        0.000
  YS02001757           JUNCTION        6.12          1.181        0.029
  YS02001895           JUNCTION        1.73          0.644        0.106
  YS02001625           JUNCTION        6.05          0.780        0.000
  YS02163301           JUNCTION        6.07          0.891        0.139
  YS02163601           JUNCTION        6.09          0.990        0.090
  YS02164001           JUNCTION        6.08          0.920        0.180
  YS02001647           JUNCTION        6.05          0.806        0.094
  YS02006553           JUNCTION        2.31          1.166        0.024
  YS02006561           JUNCTION        1.64          1.150        0.000
  YS02006556           JUNCTION        2.11          1.319        0.031
  YS02006558           JUNCTION        2.09          1.383        0.017
  YS02001783           JUNCTION        2.12          1.547        0.053
  YS02001784           JUNCTION        2.18          1.475        0.015
  YS02001786           JUNCTION        2.10          1.430        0.000
  YS02001788           JUNCTION        2.09          1.480        0.000
  YS02001790           JUNCTION        3.50          1.157        0.000
  YS02001791           JUNCTION        3.58          1.920        0.000
  YS02001793           JUNCTION        3.74          2.182        0.418
  
  
  *********************
  Node Flooding Summary
  *********************
  
  Flooding refers to all water that overflows a node, whether it ponds or not.
  --------------------------------------------------------------------------
                                                             Total   Maximum
                                 Maximum   Time of Max       Flood    Ponded
                        Hours       Rate    Occurrence      Volume     Depth
  Node                 Flooded       LPS   days hr:min    10^6 ltr    Meters
  --------------------------------------------------------------------------
  WS02006256              0.01    406.11      0  00:00       0.001     0.000
  YS02001779              3.50    654.99      0  02:56       2.601     0.000
  YS02001890              0.57     89.84      0  02:15       0.101     0.000
  YS02001907              1.40    616.60      0  01:58       2.002     0.000
  YS02001918              0.01     10.26      0  01:57       0.000     0.000
  YS02001619              0.01     58.39      0  01:48       0.000     0.000
  YS02001629              0.01    175.31      0  01:47       0.001     0.000
  YS02001644              4.83   1465.02      0  02:55      10.748     0.000
  YS02001652              0.01      6.32      0  02:24       0.000     0.000
  YS02001655              0.01     11.35      0  02:24       0.000     0.000
  YS02001923              0.01     89.27      0  01:57       0.000     0.000
  YS02001926              0.01    308.49      0  01:57       0.000     0.000
  YS02001661              0.01    124.59      0  02:24       0.000     0.000
  YS02001622              0.01     23.84      0  01:48       0.000     0.000
  YS02001649              0.09     38.00      0  02:13       0.004     0.000
  YS02001625              2.01    325.78      0  02:16       1.446     0.000
  YS02006561              0.01     93.53      0  01:54       0.000     0.000
  YS02001786              0.01    142.40      0  01:54       0.000     0.000
  YS02001788              0.01    211.95      0  01:54       0.000     0.000
  YS02001790              0.01    183.26      0  01:53       0.000     0.000
  YS02001791              0.01    258.89      0  05:22       0.000     0.000
  JK-storage              3.15    969.86      0  02:15       5.260     0.000
  XR-storage              5.64    749.68      0  03:01       6.097     0.000
  
  
  **********************
  Storage Volume Summary
  **********************
  
  --------------------------------------------------------------------------------------------------
                         Average     Avg  Evap Exfil       Maximum     Max    Time of Max    Maximum
                          Volume    Pcnt  Pcnt  Pcnt        Volume    Pcnt     Occurrence    Outflow
  Storage Unit           1000 m3    Full  Loss  Loss       1000 m3    Full    days hr:min        LPS
  --------------------------------------------------------------------------------------------------
  JK-storage               0.196      67     0     0         0.291     100       0  01:54     600.00
  CC-storage               3.245      21     0     0         3.981      25       0  02:53     400.00
  XR-storage               0.906      98     0     0         0.926     100       0  01:54     380.00
  
  
  ***********************
  Outfall Loading Summary
  ***********************
  
  -----------------------------------------------------------
                         Flow       Avg       Max       Total
                         Freq      Flow      Flow      Volume
  Outfall Node           Pcnt       LPS       LPS    10^6 ltr
  -----------------------------------------------------------
  WSC                   99.99    614.79   1053.00      15.273
  3                     89.06    221.13    624.83       4.199
  4                     49.81     81.67    352.37       0.892
  5                      0.00      0.00      0.00       0.000
  -----------------------------------------------------------
  System                59.71    917.59   1989.50      20.364
  
  
  ********************
  Link Flow Summary
  ********************
  
  -----------------------------------------------------------------------------
                                 Maximum  Time of Max   Maximum    Max/    Max/
                                  |Flow|   Occurrence   |Veloc|    Full    Full
  Link                 Type          LPS  days hr:min     m/sec    Flow   Depth
  -----------------------------------------------------------------------------
  WS02003066WSF200     CONDUIT    819.66     0  02:01      3.05    0.14    0.29
  WS02006287WS02006284 CONDUIT    655.86     0  01:55      2.36    0.30    0.38
  WS02006284WS02006280 CONDUIT    656.04     0  01:55      2.59    0.27    0.36
  WS02006280WS02006229 CONDUIT    656.05     0  01:55      4.21    0.14    0.26
  WS02006229WS02006228 CONDUIT    795.71     0  02:00      1.58    2.64    1.00
  WS02006256WS02006235 CONDUIT    177.52     0  00:01      2.73    1.88    1.00
  WS02006253WS02006251 CONDUIT    143.41     0  02:01      0.59    0.43    1.00
  WS02006252WS02006251 CONDUIT    400.50     0  07:40      3.19    1.47    1.00
  WS02006251WS02006249 CONDUIT    531.82     0  02:00      1.38    1.53    1.00
  WS02006249WS02006248 CONDUIT    353.69     0  03:00      1.17    1.94    1.00
  WS02006248WS02006247 CONDUIT    348.08     0  06:41      1.13    0.76    1.00
  WS02006247WS02006245 CONDUIT    341.86     0  06:41      1.10    2.71    1.00
  WS02006245WS02006243 CONDUIT    336.29     0  04:41      1.12    0.99    1.00
  WS02006243WS02006242 CONDUIT    335.98     0  04:41      0.97    0.72    1.00
  WS02006242WS02006240 CONDUIT    332.45     0  04:40      0.91    1.32    1.00
  WS02006240WS02006239 CONDUIT    331.21     0  03:20      0.95    1.04    1.00
  WS02006239WS02006238 CONDUIT    329.45     0  03:20      0.90    1.05    1.00
  WS02006238WS02006235 CONDUIT    330.07     0  03:20      1.32    0.74    1.00
  WS02006235WS02006234 CONDUIT    389.40     0  06:11      1.04    4.11    1.00
  WS02006234WS02006232 CONDUIT    388.59     0  03:50      1.17    0.79    1.00
  WS02006232WS02006231 CONDUIT    388.59     0  03:50      1.06    0.81    1.00
  WS02006231WS02006230 CONDUIT    388.62     0  03:50      1.37    5.89    1.00
  WS02006230WS02006229 CONDUIT    398.99     0  03:50      1.04    8.88    1.00
  WS02006228WS02006109 CONDUIT    795.72     0  02:00      1.58    3.48    1.00
  WS02006116WS02004401 CONDUIT    819.52     0  01:59      1.04    1.13    1.00
  WS02006115WS02006116 CONDUIT    819.52     0  01:59      1.04    1.05    1.00
  WS02006113WS02006111 CONDUIT    796.80     0  02:00      2.65    0.96    0.78
  WS02006112WS02006115 CONDUIT    819.61     0  01:59      1.04    0.48    1.00
  WS02006111WS02006112 CONDUIT    796.89     0  02:01      1.78    0.38    0.89
  WS02006110WS02006113 CONDUIT    796.90     0  02:00      1.68    0.73    0.89
  WS02006109WS02006110 CONDUIT    796.93     0  02:00      1.59    1.53    1.00
  WS02004411WS02004412 CONDUIT    819.51     0  02:01      1.16    1.16    0.85
  WS02004401WS02004402 CONDUIT    819.52     0  01:59      1.04    0.98    1.00
  WS02004413WS02003067 CONDUIT    819.51     0  02:01      1.41    0.35    0.69
  WS02004412WS02004413 CONDUIT    819.51     0  02:01      1.09    0.55    0.91
  WS02004410WS02004411 CONDUIT    819.52     0  02:00      1.14    1.12    0.86
  WS02004409WS02004410 CONDUIT    819.57     0  02:00      1.14    1.06    0.86
  WS02004407WS02004409 CONDUIT    819.72     0  01:59      1.66    0.29    0.62
  WS02004406WS02004407 CONDUIT    819.73     0  01:58      1.43    0.37    0.68
  WS02004405WS02004406 CONDUIT    819.72     0  01:59      1.04    1.62    1.00
  WS02004404WS02004405 CONDUIT    819.69     0  01:59      1.04    8.03    1.00
  WS02004403WS02004404 CONDUIT    819.52     0  01:59      1.04    0.59    1.00
  WS02004402WS02004403 CONDUIT    819.52     0  01:59      1.04    1.18    1.00
  WS02004139WS02001211 CONDUIT    379.51     0  07:50      0.57    0.48    0.58
  WS02004138WS02004139 CONDUIT    380.00     0  07:42      2.39    0.08    0.43
  WS02003067WS02003066 CONDUIT    819.57     0  02:01      1.53    0.26    0.48
  WS02001213WS02003059 CONDUIT    383.73     0  07:50      0.62    0.63    0.78
  WS02001212WS02001213 CONDUIT    385.02     0  07:50      1.19    0.59    0.46
  WS02001211WS02001212 CONDUIT    385.88     0  07:50      0.74    0.30    0.63
  WS02003072WS02003073 CONDUIT   1051.42     0  02:14      1.80    2.27    0.51
  WS02003069WS02003072 CONDUIT   1051.55     0  02:13      1.68    0.51    0.54
  WS02003060WS02003069 CONDUIT   1051.68     0  02:13      1.92    0.41    0.49
  WS02003059WS02003060 CONDUIT    382.08     0  07:50      0.82    0.25    0.68
  HS02004901HS02004770 CONDUIT     31.96     0  01:52      0.09    0.12    0.51
  HS02004876HS02004881 CONDUIT    126.38     0  01:55      1.20    1.34    0.15
  HS02004870HS02004876 CONDUIT    102.10     0  01:55      0.82    0.07    0.18
  HS02004842HS02004848 CONDUIT     15.55     0  02:06      0.07    0.01    0.33
  HS02004837HS02004842 CONDUIT     15.96     0  02:07      0.41    0.01    0.35
  HS02004830HS02004837 CONDUIT     62.46     0  01:55      0.66    0.06    0.14
  HS02004824HS02004830 CONDUIT     62.57     0  01:56      0.62    0.08    0.16
  HS02004817HS02004824 CONDUIT    123.43     0  01:59      0.31    0.06    0.58
  HS02004770HS02004777 CONDUIT    165.77     0  01:51      0.46    0.30    0.52
  HS02004799HS02004480 CONDUIT    414.30     0  01:53      1.02    0.52    0.58
  HS02004792HS02004799 CONDUIT    377.20     0  01:52      1.15    0.23    0.47
  HS02004788HS02004792 CONDUIT    218.44     0  01:53      1.24    0.14    0.25
  HS02004785HS02004788 CONDUIT    165.54     0  01:53      0.86    1.25    0.27
  HS02004777HS02004785 CONDUIT    165.44     0  01:52      0.54    0.20    0.44
  HS02004480HS02004478 CONDUIT    492.14     0  01:53      1.52    2.07    0.46
  HS02004479HS02004480 CONDUIT     78.31     0  01:54      0.27    0.08    0.55
  HS02004862HS02004870 CONDUIT     77.52     0  01:55      0.79    0.08    0.14
  HS02004848HS02004852 CONDUIT     36.10     0  01:55      0.52    0.04    0.10
  HS02004856HS02004862 CONDUIT     54.46     0  01:55      0.59    0.05    0.13
  HS02004852HS02004856 CONDUIT     36.15     0  01:56      0.33    0.04    0.16
  HS02004802HS02004478 CONDUIT    170.22     0  01:58      0.53    0.15    0.47
  HS02004478WS02006287 CONDUIT    655.81     0  01:54      2.08    0.18    0.35
  HS02004817HS02004807 CONDUIT    125.36     0  01:59      0.24    0.07    0.75
  HS02004807HS02004802 CONDUIT    169.24     0  01:58      0.47    0.32    0.53
  YS02001759YS02001757 CONDUIT    876.17     0  02:05      1.12    0.62    1.00
  YS02001762YS02001759 CONDUIT    438.88     0  02:04      0.56    0.51    1.00
  YS02001765YS02001762 CONDUIT    438.78     0  02:04      0.56    0.41    1.00
  YS02001770YS02001767 CONDUIT    438.23     0  02:04      0.56    1.74    1.00
  YS02001774YS02001770 CONDUIT    654.98     0  02:56      0.83    0.42    1.00
  YS02001779YS02001774 CONDUIT    654.99     0  02:56      0.83    0.33    1.00
  YS02001649YS02001757 CONDUIT    969.51     0  02:00      1.23    0.59    1.00
  YS02001767YS02001765 CONDUIT    438.87     0  02:04      0.56    0.55    1.00
  YS02006561YS02001783 CONDUIT    968.39     0  02:13      2.19    0.50    1.00
  YS02001783YS02001784 CONDUIT    968.42     0  02:15      1.93    1.33    1.00
  YS02001784YS02001785 CONDUIT    969.36     0  02:15      1.94    2.26    1.00
  YS02001788YS02001790 CONDUIT    969.59     0  02:15      2.44    0.71    1.00
  YS02001790YS02001791 CONDUIT    969.70     0  02:15      2.95    1.06    1.00
  YS02001791YS02001793 CONDUIT    969.85     0  02:15      5.80    0.42    1.00
  YS02001910YS02001907 CONDUIT    631.82     0  01:58      0.80    0.36    1.00
  YS02001786YS02001788 CONDUIT    969.40     0  02:15      2.32    1.87    1.00
  YS02001915YS02001910 CONDUIT    631.89     0  01:58      0.80    0.31    1.00
  YS02001918YS02001915 CONDUIT    361.41     0  01:58      0.46    0.20    1.00
  YS02001923YS02001920 CONDUIT    358.05     0  01:58      0.78    0.16    1.00
  YS02001926YS02001923 CONDUIT    309.33     0  01:57      0.87    0.44    1.00
  YS02001929YS02001926 CONDUIT    228.64     0  01:58      0.93    0.11    0.97
  YS02001920YS02001918 CONDUIT    361.07     0  01:58      0.76    0.35    1.00
  YS02001629YS02163301 CONDUIT    228.27     0  01:48      0.29    0.28    1.00
  YS02001619YS02001622 CONDUIT    336.80     0  02:16      0.76    0.50    1.00
  YS02001622YS02001625 CONDUIT    336.55     0  02:16      0.43    0.18    1.00
  YS02001625YS02001629 CONDUIT    210.37     0  01:47      0.31    0.10    1.00
  YS02163301YS02001633 CONDUIT    228.11     0  01:48      0.29    0.21    1.00
  YS02163601YS02164001 CONDUIT    418.27     0  01:51      0.53    0.37    1.00
  YS02164001YS02001641 CONDUIT    418.43     0  01:51      0.53    0.57    1.00
  YS02001641YS02001644 CONDUIT    418.76     0  01:51      0.53    1.35    1.00
  YS02001647YS02001649 CONDUIT    740.69     0  02:55      0.94    0.39    1.00
  YS02006553YS02006556 CONDUIT    683.53     0  03:22      0.87    0.58    1.00
  YS02006556YS02006558 CONDUIT    683.76     0  03:22      0.87    0.54    1.00
  YSB6556YSB1171       CONDUIT     43.98     0  01:54      0.13    0.05    0.82
  YS02001907YS02006553 CONDUIT    683.40     0  03:22      0.76    0.80    1.00
  YS02006558YS02006561 CONDUIT    974.42     0  01:54      3.59    2.15    1.00
  YS02001633YS02163601 CONDUIT    418.30     0  01:51      0.53    0.44    1.00
  YS02001644YS02001647 CONDUIT    740.77     0  02:55      0.94    0.44    1.00
  YS02001745YS02001748 CONDUIT    397.23     0  02:16      1.73    0.15    0.97
  YS02001748YS02001751 CONDUIT    397.36     0  02:16      1.25    0.20    1.00
  YS02001751YS02001754 CONDUIT    397.22     0  02:16      1.02    0.19    1.00
  YS02001754YS02001757 CONDUIT    397.58     0  02:16      0.51    0.16    1.00
  YS02001882YS02001884 CONDUIT     24.63     0  01:50      0.12    0.03    1.00
  YS02001884YS02001887 CONDUIT     48.88     0  01:52      0.09    0.07    1.00
  YS02001890YS02001895 CONDUIT    517.16     0  02:06      0.66    0.24    1.00
  YS02001895YS02001898 CONDUIT    517.18     0  02:15      0.66    0.90    1.00
  YS02001898YS02001901 CONDUIT    517.24     0  02:15      0.66    0.33    1.00
  YS02001901YS02001904 CONDUIT    517.20     0  02:19      0.66    0.80    1.00
  YS02001904YS02001907 CONDUIT    517.18     0  02:14      0.66    0.18    1.00
  YS02001887YS02001890 CONDUIT    606.28     0  02:15      0.77    1.04    1.00
  YS02001652YS02001649 CONDUIT    476.99     0  02:12      0.61    0.24    1.00
  YS02001655YS02001652 CONDUIT    475.28     0  02:14      1.09    0.23    1.00
  YS02001658YS02001655 CONDUIT    475.31     0  02:12      1.45    0.20    1.00
  YS02001661YS02001658 CONDUIT    488.76     0  02:08      1.85    0.19    1.00
  YS02001664YS02001661 CONDUIT    774.23     0  02:07      1.75    0.24    0.77
  YSB1154YSB6556       CONDUIT     43.64     0  01:53      0.17    0.08    0.72
  YSB1174YSB1171       CONDUIT     35.15     0  01:50      0.10    0.05    0.83
  YSB1171HS02004479    CONDUIT     78.00     0  01:53      0.54    0.05    0.67
  HS02004881HS02006253 CONDUIT    139.58     0  01:55      2.11    0.03    0.40
  YS02001793JiankangQianchi CONDUIT    993.88     0  01:52     12.69    0.08    1.00
  YS02001757CaochengTiaoxuchi CONDUIT   2142.66     0  02:04      3.75    0.94    1.00
  WSF200WS02003060     CONDUIT    820.54     0  02:01      2.11    0.18    0.39
  1                    CONDUIT   1053.00     0  02:14      3.37    0.37    0.42
  2                    CONDUIT    352.37     0  02:00      6.62    0.84    0.71
  3                    CONDUIT    624.83     0  02:00     10.06    1.00    0.86
  4                    CONDUIT      0.00     0  00:00      0.00    0.00    0.00
  CC-Pump-1            PUMP       200.00     0  01:50              1.00
  CC-Pump-2            PUMP       200.00     0  02:00              1.00
  JK-Pump-1            PUMP       300.00     0  00:00              1.00
  JK-Pump-2            PUMP       300.00     0  00:00              1.00
  XR-Pump-1            PUMP        95.00     0  01:20              1.00
  XR-Pump-2            PUMP        95.00     0  00:00              1.00
  XR-Pump-3            PUMP        95.00     0  01:30              1.00
  XR-Pump-4            PUMP        95.00     0  00:20              1.00
  
  
  ***************************
  Flow Classification Summary
  ***************************
  
  -------------------------------------------------------------------------------------
                      Adjusted    ---------- Fraction of Time in Flow Class ---------- 
                       /Actual         Up    Down  Sub   Sup   Up    Down  Norm  Inlet 
  Conduit               Length    Dry  Dry   Dry   Crit  Crit  Crit  Crit  Ltd   Ctrl  
  -------------------------------------------------------------------------------------
  WS02003066WSF200        1.00   0.06  0.00  0.00  0.00  0.94  0.00  0.00  0.58  0.00
  WS02006287WS02006284    1.00   0.03  0.01  0.00  0.57  0.39  0.00  0.00  0.65  0.00
  WS02006284WS02006280    1.00   0.03  0.00  0.00  0.00  0.00  0.00  0.97  0.00  0.00
  WS02006280WS02006229    1.00   0.03  0.00  0.00  0.00  0.02  0.00  0.95  0.01  0.00
  WS02006229WS02006228    1.00   0.00  0.00  0.00  0.99  0.00  0.00  0.01  0.00  0.00
  WS02006256WS02006235    1.00   0.00  0.00  0.00  1.00  0.00  0.00  0.00  0.00  0.00
  WS02006253WS02006251    1.00   0.02  0.01  0.00  0.97  0.00  0.00  0.00  0.00  0.00
  WS02006252WS02006251    1.00   0.05  0.00  0.00  0.00  0.00  0.95  0.00  0.00  0.00
  WS02006251WS02006249    1.00   0.00  0.00  0.00  1.00  0.00  0.00  0.00  0.19  0.00
  WS02006249WS02006248    1.00   0.00  0.01  0.00  0.93  0.00  0.05  0.00  0.00  0.00
  WS02006248WS02006247    1.00   0.02  0.00  0.00  0.98  0.00  0.00  0.01  0.09  0.00
  WS02006247WS02006245    1.00   0.02  0.00  0.00  0.96  0.00  0.00  0.02  0.00  0.00
  WS02006245WS02006243    1.00   0.01  0.00  0.00  0.95  0.00  0.00  0.04  0.02  0.00
  WS02006243WS02006242    1.00   0.01  0.00  0.00  0.99  0.00  0.00  0.00  0.18  0.00
  WS02006242WS02006240    1.00   0.00  0.00  0.00  0.99  0.00  0.00  0.00  0.00  0.00
  WS02006240WS02006239    1.00   0.00  0.00  0.00  0.97  0.00  0.00  0.03  0.02  0.00
  WS02006239WS02006238    1.00   0.00  0.00  0.00  1.00  0.00  0.00  0.00  0.01  0.00
  WS02006238WS02006235    1.00   0.00  0.00  0.00  1.00  0.00  0.00  0.00  0.00  0.00
  WS02006235WS02006234    1.00   0.00  0.00  0.00  0.97  0.00  0.03  0.00  0.00  0.00
  WS02006234WS02006232    1.00   0.00  0.00  0.00  1.00  0.00  0.00  0.00  0.03  0.00
  WS02006232WS02006231    1.00   0.00  0.00  0.00  0.99  0.00  0.01  0.00  0.00  0.00
  WS02006231WS02006230    1.00   0.00  0.00  0.00  0.71  0.00  0.29  0.00  0.00  0.00
  WS02006230WS02006229    1.00   0.00  0.00  0.00  0.99  0.00  0.00  0.01  0.01  0.00
  WS02006228WS02006109    1.00   0.00  0.00  0.00  1.00  0.00  0.00  0.00  0.00  0.00
  WS02006116WS02004401    1.00   0.02  0.00  0.00  0.98  0.00  0.00  0.00  0.00  0.00
  WS02006115WS02006116    1.00   0.02  0.00  0.00  0.97  0.00  0.00  0.01  0.01  0.00
  WS02006113WS02006111    1.00   0.02  0.00  0.00  0.06  0.92  0.00  0.00  0.11  0.00
  WS02006112WS02006115    1.00   0.02  0.00  0.00  0.98  0.00  0.00  0.00  0.00  0.00
  WS02006111WS02006112    1.00   0.02  0.00  0.00  0.98  0.00  0.00  0.00  0.87  0.00
  WS02006110WS02006113    1.00   0.01  0.00  0.00  0.98  0.00  0.00  0.00  0.00  0.00
  WS02006109WS02006110    1.00   0.00  0.01  0.00  0.98  0.00  0.00  0.00  0.00  0.00
  WS02004411WS02004412    1.00   0.04  0.00  0.00  0.96  0.00  0.00  0.00  0.00  0.00
  WS02004401WS02004402    1.00   0.02  0.00  0.00  0.98  0.00  0.00  0.00  0.00  0.00
  WS02004413WS02003067    1.00   0.05  0.01  0.00  0.00  0.00  0.94  0.00  0.00  0.00
  WS02004412WS02004413    1.00   0.05  0.00  0.00  0.95  0.00  0.00  0.00  0.00  0.00
  WS02004410WS02004411    1.00   0.04  0.00  0.00  0.96  0.00  0.00  0.00  0.00  0.00
  WS02004409WS02004410    1.00   0.04  0.00  0.00  0.96  0.00  0.00  0.00  0.00  0.00
  WS02004407WS02004409    1.00   0.04  0.00  0.00  0.95  0.01  0.00  0.00  0.80  0.00
  WS02004406WS02004407    1.00   0.00  0.04  0.00  0.96  0.00  0.00  0.00  0.00  0.00
  WS02004405WS02004406    1.00   0.00  0.00  0.00  1.00  0.00  0.00  0.00  0.02  0.00
  WS02004404WS02004405    1.00   0.00  0.00  0.00  1.00  0.00  0.00  0.00  0.00  0.00
  WS02004403WS02004404    1.00   0.00  0.02  0.00  0.98  0.00  0.00  0.00  0.02  0.00
  WS02004402WS02004403    1.00   0.02  0.00  0.00  0.98  0.00  0.00  0.00  0.00  0.00
  WS02004139WS02001211    1.00   0.00  0.00  0.00  0.99  0.00  0.01  0.00  0.00  0.00
  WS02004138WS02004139    1.00   0.00  0.00  0.00  0.99  0.01  0.00  0.00  1.00  0.00
  WS02003067WS02003066    1.00   0.06  0.00  0.00  0.94  0.00  0.00  0.00  0.00  0.00
  WS02001213WS02003059    1.00   0.00  0.01  0.00  0.99  0.00  0.00  0.00  0.00  0.00
  WS02001212WS02001213    1.00   0.01  0.00  0.00  0.85  0.00  0.14  0.00  0.00  0.00
  WS02001211WS02001212    1.00   0.00  0.01  0.00  0.99  0.00  0.00  0.00  0.00  0.00
  WS02003072WS02003073    1.00   0.00  0.00  0.00  0.00  0.00  0.00  1.00  0.00  0.00
  WS02003069WS02003072    1.00   0.00  0.00  0.00  0.99  0.01  0.00  0.00  0.23  0.00
  WS02003060WS02003069    1.00   0.00  0.00  0.00  0.98  0.02  0.00  0.00  0.11  0.00
  WS02003059WS02003060    1.00   0.00  0.00  0.00  0.99  0.01  0.00  0.00  0.02  0.00
  HS02004901HS02004770    1.00   0.03  0.00  0.00  0.97  0.00  0.00  0.00  0.00  0.00
  HS02004876HS02004881    1.00   0.02  0.00  0.00  0.84  0.14  0.00  0.00  0.00  0.00
  HS02004870HS02004876    1.00   0.01  0.00  0.00  0.99  0.00  0.00  0.00  0.95  0.00
  HS02004842HS02004848    1.00   0.00  0.03  0.00  0.97  0.00  0.00  0.00  0.57  0.00
  HS02004837HS02004842    1.00   0.00  0.00  0.00  0.99  0.01  0.00  0.00  0.11  0.00
  HS02004830HS02004837    1.00   0.00  0.00  0.00  1.00  0.00  0.00  0.00  0.99  0.00
  HS02004824HS02004830    1.00   0.00  0.00  0.00  1.00  0.00  0.00  0.00  0.03  0.00
  HS02004817HS02004824    1.00   0.00  0.00  0.00  1.00  0.00  0.00  0.00  0.94  0.00
  HS02004770HS02004777    1.00   0.00  0.03  0.00  0.97  0.00  0.00  0.00  0.03  0.00
  HS02004799HS02004480    1.00   0.00  0.02  0.00  0.96  0.00  0.02  0.00  0.00  0.00
  HS02004792HS02004799    1.00   0.00  0.00  0.00  0.99  0.01  0.00  0.00  0.98  0.00
  HS02004788HS02004792    1.00   0.00  0.00  0.00  0.99  0.01  0.00  0.00  0.98  0.00
  HS02004785HS02004788    1.00   0.00  0.00  0.00  1.00  0.00  0.00  0.00  0.00  0.00
  HS02004777HS02004785    1.00   0.00  0.00  0.00  1.00  0.00  0.00  0.00  0.13  0.00
  HS02004480HS02004478    1.00   0.03  0.00  0.00  0.64  0.00  0.00  0.33  0.00  0.00
  HS02004479HS02004480    1.00   0.02  0.00  0.00  0.98  0.00  0.00  0.00  0.12  0.00
  HS02004862HS02004870    1.00   0.00  0.00  0.00  1.00  0.00  0.00  0.00  0.04  0.00
  HS02004848HS02004852    1.00   0.03  0.00  0.00  0.97  0.00  0.00  0.00  0.78  0.00
  HS02004856HS02004862    1.00   0.00  0.04  0.00  0.96  0.00  0.00  0.00  0.82  0.00
  HS02004852HS02004856    1.00   0.03  0.00  0.00  0.96  0.00  0.00  0.00  0.77  0.00
  HS02004802HS02004478    1.00   0.03  0.00  0.00  0.96  0.00  0.00  0.00  0.03  0.00
  HS02004478WS02006287    1.00   0.04  0.00  0.00  0.70  0.26  0.00  0.00  0.62  0.00
  HS02004817HS02004807    1.00   0.00  0.03  0.00  0.97  0.00  0.00  0.00  0.01  0.00
  HS02004807HS02004802    1.00   0.03  0.00  0.00  0.96  0.00  0.00  0.00  0.00  0.00
  YS02001759YS02001757    1.00   0.00  0.00  0.00  1.00  0.00  0.00  0.00  0.16  0.00
  YS02001762YS02001759    1.00   0.00  0.00  0.00  1.00  0.00  0.00  0.00  0.03  0.00
  YS02001765YS02001762    1.00   0.00  0.00  0.00  1.00  0.00  0.00  0.00  0.14  0.00
  YS02001770YS02001767    1.00   0.00  0.00  0.00  1.00  0.00  0.00  0.00  0.00  0.00
  YS02001774YS02001770    1.00   0.00  0.03  0.00  0.97  0.00  0.00  0.00  0.03  0.00
  YS02001779YS02001774    1.00   0.00  0.00  0.00  1.00  0.00  0.00  0.00  0.18  0.00
  YS02001649YS02001757    1.00   0.00  0.00  0.00  1.00  0.00  0.00  0.00  0.16  0.00
  YS02001767YS02001765    1.00   0.00  0.00  0.00  1.00  0.00  0.00  0.00  0.00  0.00
  YS02006561YS02001783    1.00   0.04  0.00  0.00  0.56  0.39  0.00  0.00  0.50  0.00
  YS02001783YS02001784    1.00   0.00  0.04  0.00  0.96  0.00  0.00  0.00  0.00  0.00
  YS02001784YS02001785    1.00   0.00  0.00  0.00  1.00  0.00  0.00  0.00  0.17  0.00
  YS02001788YS02001790    1.00   0.00  0.00  0.00  0.62  0.38  0.00  0.00  0.44  0.00
  YS02001790YS02001791    1.00   0.00  0.00  0.00  0.60  0.40  0.00  0.00  0.31  0.00
  YS02001791YS02001793    1.00   0.00  0.00  0.00  0.61  0.39  0.00  0.00  0.02  0.00
  YS02001910YS02001907    1.00   0.00  0.00  0.00  0.98  0.00  0.00  0.02  0.12  0.00
  YS02001786YS02001788    1.00   0.00  0.00  0.00  0.60  0.40  0.00  0.00  0.00  0.00
  YS02001915YS02001910    1.00   0.00  0.00  0.00  0.99  0.01  0.00  0.00  0.16  0.00
  YS02001918YS02001915    1.00   0.00  0.01  0.00  0.99  0.00  0.00  0.00  0.52  0.00
  YS02001923YS02001920    1.00   0.00  0.00  0.00  1.00  0.00  0.00  0.00  0.74  0.00
  YS02001926YS02001923    1.00   0.00  0.02  0.00  0.29  0.00  0.68  0.00  0.00  0.00
  YS02001929YS02001926    1.00   0.00  0.03  0.00  0.97  0.00  0.00  0.00  0.66  0.00
  YS02001920YS02001918    1.00   0.00  0.01  0.00  0.99  0.00  0.00  0.00  0.00  0.00
  YS02001629YS02163301    1.00   0.04  0.00  0.00  0.96  0.00  0.00  0.00  0.00  0.00
  YS02001619YS02001622    1.00   0.03  0.00  0.00  0.97  0.00  0.00  0.00  0.00  0.00
  YS02001622YS02001625    1.00   0.03  0.00  0.00  0.97  0.00  0.00  0.00  0.05  0.00
  YS02001625YS02001629    1.00   0.03  0.01  0.00  0.95  0.00  0.01  0.00  0.00  0.00
  YS02163301YS02001633    1.00   0.00  0.04  0.00  0.96  0.00  0.00  0.00  0.00  0.00
  YS02163601YS02164001    1.00   0.00  0.03  0.00  0.97  0.00  0.00  0.00  0.00  0.00
  YS02164001YS02001641    1.00   0.01  0.02  0.00  0.97  0.00  0.00  0.00  0.06  0.00
  YS02001641YS02001644    1.00   0.00  0.01  0.00  0.99  0.00  0.00  0.00  0.00  0.00
  YS02001647YS02001649    1.00   0.00  0.04  0.00  0.96  0.00  0.00  0.00  0.01  0.00
  YS02006553YS02006556    1.00   0.01  0.00  0.00  0.99  0.00  0.00  0.00  0.03  0.00
  YS02006556YS02006558    1.00   0.00  0.00  0.00  1.00  0.00  0.00  0.00  0.00  0.00
  YSB6556YSB1171          1.00   0.02  0.01  0.00  0.97  0.00  0.00  0.00  0.00  0.00
  YS02001907YS02006553    1.00   0.00  0.01  0.00  0.98  0.00  0.00  0.00  0.00  0.00
  YS02006558YS02006561    1.00   0.04  0.00  0.00  0.32  0.64  0.00  0.00  0.42  0.00
  YS02001633YS02163601    1.00   0.00  0.01  0.00  0.99  0.00  0.00  0.00  0.15  0.00
  YS02001644YS02001647    1.00   0.00  0.04  0.00  0.96  0.00  0.00  0.00  0.00  0.00
  YS02001745YS02001748    1.00   0.00  0.00  0.00  0.93  0.00  0.00  0.06  0.01  0.00
  YS02001748YS02001751    1.00   0.00  0.00  0.00  0.98  0.02  0.00  0.00  0.14  0.00
  YS02001751YS02001754    1.00   0.00  0.00  0.00  0.95  0.00  0.00  0.05  0.01  0.00
  YS02001754YS02001757    1.00   0.00  0.00  0.00  0.99  0.01  0.00  0.00  0.18  0.00
  YS02001882YS02001884    1.00   0.04  0.00  0.00  0.96  0.00  0.00  0.00  0.00  0.00
  YS02001884YS02001887    1.00   0.02  0.01  0.00  0.97  0.00  0.00  0.00  0.00  0.00
  YS02001890YS02001895    1.00   0.00  0.04  0.00  0.96  0.00  0.00  0.00  0.00  0.00
  YS02001895YS02001898    1.00   0.04  0.00  0.00  0.96  0.00  0.00  0.00  0.00  0.00
  YS02001898YS02001901    1.00   0.04  0.00  0.00  0.96  0.00  0.00  0.00  0.01  0.00
  YS02001901YS02001904    1.00   0.04  0.00  0.00  0.96  0.00  0.00  0.00  0.00  0.00
  YS02001904YS02001907    1.00   0.00  0.04  0.00  0.96  0.00  0.00  0.00  0.00  0.00
  YS02001887YS02001890    1.00   0.00  0.00  0.00  0.98  0.00  0.01  0.00  0.00  0.00
  YS02001652YS02001649    1.00   0.00  0.00  0.00  1.00  0.00  0.00  0.00  0.16  0.00
  YS02001655YS02001652    1.00   0.00  0.00  0.00  0.95  0.00  0.00  0.05  0.01  0.00
  YS02001658YS02001655    1.00   0.00  0.04  0.00  0.95  0.02  0.00  0.00  0.02  0.00
  YS02001661YS02001658    1.00   0.04  0.00  0.00  0.93  0.03  0.00  0.00  0.00  0.00
  YS02001664YS02001661    1.00   0.03  0.00  0.00  0.94  0.03  0.00  0.00  0.11  0.00
  YSB1154YSB6556          1.00   0.03  0.00  0.00  0.97  0.00  0.00  0.00  0.02  0.00
  YSB1174YSB1171          1.00   0.02  0.01  0.00  0.97  0.00  0.00  0.00  0.00  0.00
  YSB1171HS02004479       1.00   0.02  0.00  0.00  0.98  0.00  0.00  0.00  0.11  0.00
  HS02004881HS02006253    1.00   0.02  0.00  0.00  0.79  0.02  0.00  0.17  0.65  0.00
  YS02001793JiankangQianchi    1.00   0.00  0.00  0.00  0.77  0.22  0.00  0.00  0.14  0.00
  YS02001757CaochengTiaoxuchi    1.00   0.00  0.05  0.00  0.89  0.06  0.00  0.00  0.00  0.00
  WSF200WS02003060        1.00   0.00  0.06  0.00  0.41  0.52  0.00  0.00  0.16  0.00
  1                       1.00   0.00  0.00  0.00  0.00  1.00  0.00  0.00  0.38  0.00
  2                       1.00   0.50  0.00  0.00  0.00  0.50  0.00  0.00  0.12  0.00
  3                       1.00   0.11  0.00  0.00  0.00  0.89  0.00  0.00  0.03  0.00
  4                       1.00   1.00  0.00  0.00  0.00  0.00  0.00  0.00  0.00  0.00
  
  
  *************************
  Conduit Surcharge Summary
  *************************
  
  ----------------------------------------------------------------------------
                                                           Hours        Hours 
                         --------- Hours Full --------   Above Full   Capacity
  Conduit                Both Ends  Upstream  Dnstream   Normal Flow   Limited
  ----------------------------------------------------------------------------
  WS02006229WS02006228        2.75      3.04      2.75      4.87         2.75
  WS02006256WS02006235        6.26      6.26      7.38      2.45         0.01
  WS02006253WS02006251        0.15      0.15      0.25      0.01         0.01
  WS02006252WS02006251        1.32      1.32      2.79      2.41         0.01
  WS02006251WS02006249        0.05      0.16      0.05      1.67         0.05
  WS02006249WS02006248        0.01      0.01      0.05      4.55         0.01
  WS02006248WS02006247        0.06      0.06      0.27      0.01         0.01
  WS02006247WS02006245        0.27      0.35      0.27      5.17         0.26
  WS02006245WS02006243        0.31      0.31      0.62      0.01         0.01
  WS02006243WS02006242        0.78      0.78      2.08      0.01         0.01
  WS02006242WS02006240        1.14      1.14      2.56      2.36         0.01
  WS02006240WS02006239        1.32      1.32      1.46      0.06         0.01
  WS02006239WS02006238        2.36      2.36      2.52      0.24         0.20
  WS02006238WS02006235        2.35      2.35      2.98      0.01         0.01
  WS02006235WS02006234        1.23      1.23      2.04      6.24         0.04
  WS02006234WS02006232        1.55      1.55      3.10      0.01         0.01
  WS02006232WS02006231        1.08      1.08      3.10      0.01         0.01
  WS02006231WS02006230        0.88      0.88      1.12      6.24         0.01
  WS02006230WS02006229        3.90      4.75      3.90      6.30         3.88
  WS02006228WS02006109        2.92      3.50      2.92      5.59         2.92
  WS02006116WS02004401        0.51      0.51      0.53      0.41         0.41
  WS02006115WS02006116        0.33      0.33      0.34      0.25         0.25
  WS02006112WS02006115        0.30      0.30      1.52      0.01         0.01
  WS02006111WS02006112        0.01      0.01      4.99      0.01         0.01
  WS02006110WS02006113        0.01      0.01      3.29      0.01         0.01
  WS02006109WS02006110        1.30      1.30      3.49      1.30         0.01
  WS02004411WS02004412        0.01      0.01      0.01      0.48         0.01
  WS02004401WS02004402        0.53      0.53      0.56      0.01         0.01
  WS02004410WS02004411        0.01      0.01      0.01      0.39         0.01
  WS02004409WS02004410        0.01      0.01      0.01      0.26         0.01
  WS02004406WS02004407        0.01      0.01      0.75      0.01         0.01
  WS02004405WS02004406        0.75      0.82      0.75      1.39         0.75
  WS02004404WS02004405        0.82      0.91      0.82      6.24         0.82
  WS02004403WS02004404        0.57      0.57      0.91      0.01         0.01
  WS02004402WS02004403        0.56      0.56      0.57      0.50         0.49
  WS02003072WS02003073        0.01      0.01      0.01      5.53         0.01
  HS02004876HS02004881        0.01      0.01      0.01      0.49         0.01
  HS02004785HS02004788        0.01      0.01      0.01      0.35         0.01
  HS02004480HS02004478        0.01      0.01      0.01      0.79         0.01
  YS02001759YS02001757        6.09      6.09      6.12      0.01         0.01
  YS02001762YS02001759        6.08      6.08      6.09      0.01         0.01
  YS02001765YS02001762        6.08      6.08      6.08      0.01         0.01
  YS02001770YS02001767        6.07      6.07      6.07      0.46         0.86
  YS02001774YS02001770        6.07      6.07      6.08      0.01         0.01
  YS02001779YS02001774        6.04      6.04      6.08      0.01         0.01
  YS02001649YS02001757        6.08      6.08      6.12      0.01         0.01
  YS02001767YS02001765        6.07      6.07      6.08      0.01         0.01
  YS02006561YS02001783        1.64      1.64      2.12      0.01         0.01
  YS02001783YS02001784        2.11      2.12      2.18      2.02         1.91
  YS02001784YS02001785        2.10      2.18      2.10      2.74         2.09
  YS02001788YS02001790        2.09      2.09      3.50      0.01         0.01
  YS02001790YS02001791        3.50      3.50      3.58      1.49         1.49
  YS02001791YS02001793        3.58      3.58      3.79      0.01         0.01
  YS02001910YS02001907        1.94      1.94      2.26      0.01         0.01
  YS02001786YS02001788        2.09      2.10      2.09      2.44         2.09
  YS02001915YS02001910        1.75      1.75      1.94      0.01         0.01
  YS02001918YS02001915        1.53      1.53      1.75      0.01         0.01
  YS02001923YS02001920        1.35      1.35      1.56      0.01         0.01
  YS02001926YS02001923        0.01      0.01      0.01      0.01         0.01
  YS02001929YS02001926        0.01      0.01      0.01      0.01         0.01
  YS02001920YS02001918        1.53      1.53      1.56      0.01         0.01
  YS02001629YS02163301        6.06      6.06      6.07      0.01         0.01
  YS02001619YS02001622        6.02      6.02      6.02      0.01         0.01
  YS02001622YS02001625        6.02      6.02      6.05      0.01         0.01
  YS02001625YS02001629        6.02      6.02      6.05      0.01         0.01
  YS02163301YS02001633        6.07      6.07      6.08      0.01         0.01
  YS02163601YS02164001        6.08      6.08      6.09      0.01         0.01
  YS02164001YS02001641        6.08      6.08      6.08      0.01         0.02
  YS02001641YS02001644        6.08      6.08      6.08      2.21         2.18
  YS02001647YS02001649        6.05      6.05      6.08      0.01         0.01
  YS02006553YS02006556        2.11      2.11      2.31      0.01         0.01
  YS02006556YS02006558        2.18      2.18      2.36      0.01         0.01
  YSB6556YSB1171              0.01      0.01      0.14      0.01         0.01
  YS02001907YS02006553        2.76      2.76      2.95      0.01         0.01
  YS02006558YS02006561        1.81      2.09      1.81      2.63         1.81
  YS02001633YS02163601        6.08      6.08      6.09      0.01         0.01
  YS02001644YS02001647        6.05      6.05      6.08      0.01         0.01
  YS02001745YS02001748        0.01      0.01      5.99      0.01         0.01
  YS02001748YS02001751        6.00      6.00      6.02      0.01         0.01
  YS02001751YS02001754        6.02      6.02      6.04      0.01         0.01
  YS02001754YS02001757        6.05      6.05      6.12      0.01         0.01
  YS02001882YS02001884        1.76      1.76      1.79      0.01         0.01
  YS02001884YS02001887        1.84      1.84      1.87      0.01         0.01
  YS02001890YS02001895        1.73      1.73      1.96      0.01         0.01
  YS02001895YS02001898        1.72      1.72      1.73      0.01         0.01
  YS02001898YS02001901        1.74      1.74      1.83      0.01         0.01
  YS02001901YS02001904        1.81      1.81      1.83      0.01         0.01
  YS02001904YS02001907        1.81      1.81      2.33      0.01         0.01
  YS02001887YS02001890        1.90      1.90      1.92      0.20         0.01
  YS02001652YS02001649        6.06      6.06      6.08      0.01         0.01
  YS02001655YS02001652        6.02      6.02      6.05      0.01         0.01
  YS02001658YS02001655        5.99      5.99      6.02      0.01         0.01
  YS02001661YS02001658        0.23      0.23      5.99      0.01         0.01
  YS02001664YS02001661        0.01      0.01      1.69      0.01         0.01
  YS02001793JiankangQianchi        3.74      3.74      4.61      0.01         0.01
  YS02001757CaochengTiaoxuchi        5.57      5.57      6.12      0.01         0.01
  3                           0.01      0.01      0.01      0.01         0.01
  
  
  ***************
  Pumping Summary
  ***************
  
  ---------------------------------------------------------------------------------------------------------
                                                  Min       Avg       Max     Total     Power    % Time Off
                        Percent   Number of      Flow      Flow      Flow    Volume     Usage    Pump Curve
  Pump                 Utilized   Start-Ups       LPS       LPS       LPS  10^6 ltr     Kw-hr    Low   High
  ---------------------------------------------------------------------------------------------------------
  CC-Pump-1               59.57           6      0.00    123.66    200.00     2.100      3.00    0.0    5.9
  CC-Pump-2               75.01           5      0.00    150.71    200.00     3.129      3.92    0.0    5.4
  JK-Pump-1               85.10           8      0.00    183.97    300.00     3.574     31.71    0.0    0.0
  JK-Pump-2               63.83           9      0.00    176.06    300.00     2.381     16.07    0.0    0.0
  XR-Pump-1               85.09           7      0.00     69.53     95.00     1.624      8.98    0.0    0.0
  XR-Pump-2               74.46           8      0.00     63.34     95.00     1.368      8.92    0.0    0.0
  XR-Pump-3               76.57          11      0.00     65.44     95.00     1.396      7.88    0.0    0.0
  XR-Pump-4               78.70          10      0.00     59.00     95.00     1.396      8.50    0.0    0.0
  

  Analysis begun on:  Fri Jan  7 22:58:10 2022
  Analysis ended on:  Fri Jan  7 22:58:14 2022
  Total elapsed time: 00:00:04