
  EPA STORM WATER MANAGEMENT MODEL - VERSION 5.1 (Build 5.3.0.dev0)
  --------------------------------------------------------------

  WARNING 04: minimum elevation drop used for Conduit WS02004404WS02004405
  WARNING 03: negative offset ignored for Link YS02001904YS02001907
  
  *********************************************************
  NOTE: The summary statistics displayed in this report are
  based on results found at every computational time step,  
  not just on results from each reporting time step.
  *********************************************************
  
  ****************
  Analysis Options
  ****************
  Flow Units ............... LPS
  Process Models:
    Rainfall/Runoff ........ YES
    RDII ................... NO
    Snowmelt ............... NO
    Groundwater ............ NO
    Flow Routing ........... YES
    Ponding Allowed ........ NO
    Water Quality .......... NO
  Infiltration Method ...... HORTON
  Flow Routing Method ...... DYNWAVE
  Surcharge Method ......... EXTRAN
  Starting Date ............ 08/28/2015 08:00:00
  Ending Date .............. 08/28/2015 15:50:00
  Antecedent Dry Days ...... 8.0
  Report Time Step ......... 00:01:00
  Wet Time Step ............ 00:01:00
  Dry Time Step ............ 00:01:00
  Routing Time Step ........ 5.00 sec
  Variable Time Step ....... YES
  Maximum Trials ........... 8
  Number of Threads ........ 4
  Head Tolerance ........... 0.001500 m
  
  
  **************************        Volume         Depth
  Runoff Quantity Continuity     hectare-m            mm
  **************************     ---------       -------
  Total Precipitation ......         1.890         4.138
  Evaporation Loss .........         0.000         0.000
  Infiltration Loss ........         0.466         1.020
  Surface Runoff ...........         0.625         1.369
  Final Storage ............         0.799         1.749
  Continuity Error (%) .....        -0.017
  
  
  **************************        Volume        Volume
  Flow Routing Continuity        hectare-m      10^6 ltr
  **************************     ---------     ---------
  Dry Weather Inflow .......         0.616         6.165
  Wet Weather Inflow .......         0.625         6.250
  Groundwater Inflow .......         0.000         0.000
  RDII Inflow ..............         0.000         0.000
  External Inflow ..........         0.102         1.024
  External Outflow .........         0.929         9.286
  Flooding Loss ............         0.000         0.000
  Evaporation Loss .........         0.000         0.000
  Exfiltration Loss ........         0.000         0.000
  Initial Stored Volume ....         0.076         0.761
  Final Stored Volume ......         0.488         4.875
  Continuity Error (%) .....         0.263
  
  
  *************************
  Highest Continuity Errors
  *************************
  Node HS02004842 (37.08%)
  Node YS02001884 (31.33%)
  Node YS02001774 (30.59%)
  Node YS02001625 (11.38%)
  Node YSB1171 (10.74%)
  
  
  ***************************
  Time-Step Critical Elements
  ***************************
  Link 3 (58.08%)
  Link WS02006280WS02006229 (26.13%)
  Link WS02006238WS02006235 (5.18%)
  
  
  ********************************
  Highest Flow Instability Indexes
  ********************************
  Link WS02006113WS02006111 (20)
  Link YS02001767YS02001765 (7)
  Link YS02001629YS02163301 (6)
  Link YS02001759YS02001757 (6)
  Link YS02163601YS02164001 (6)
  
  
  *************************
  Routing Time Step Summary
  *************************
  Minimum Time Step           :     0.52 sec
  Average Time Step           :     2.11 sec
  Maximum Time Step           :     5.00 sec
  Percent in Steady State     :    -0.00
  Average Iterations per Step :     2.14
  Percent Not Converging      :     0.50
  
  
  ***************************
  Subcatchment Runoff Summary
  ***************************
  
  ------------------------------------------------------------------------------------------------------------------------------
                            Total      Total      Total      Total     Imperv       Perv      Total       Total     Peak  Runoff
                           Precip      Runon       Evap      Infil     Runoff     Runoff     Runoff      Runoff   Runoff   Coeff
  Subcatchment                 mm         mm         mm         mm         mm         mm         mm    10^6 ltr      LPS
  ------------------------------------------------------------------------------------------------------------------------------
  sub0                       4.14       0.00       0.00       0.29       2.58       0.00       2.58        0.00     0.74   0.624
  sub1                       4.14       0.00       0.00       0.46       2.43       0.00       2.43        0.02     3.84   0.587
  sub2                       4.14       0.00       0.00       1.53       1.70       0.00       1.70        0.02     3.39   0.412
  sub3                       4.14       0.00       0.00       1.53       1.67       0.00       1.67        0.04     6.95   0.404
  sub4                       4.14       0.00       0.00       0.46       2.30       0.00       2.30        0.05     7.78   0.557
  sub5                       4.14       0.00       0.00       0.29       2.54       0.00       2.54        0.03     6.83   0.613
  sub7                       4.14       0.00       0.00       0.37       2.51       0.00       2.51        0.01     2.42   0.607
  sub8                       4.14       0.00       0.00       0.37       2.50       0.00       2.50        0.02     4.26   0.605
  sub9                       4.14       0.00       0.00       0.37       2.50       0.00       2.50        0.01     3.16   0.604
  sub10                      4.14       0.00       0.00       0.33       2.52       0.00       2.52        0.03     6.82   0.608
  sub11                      4.14       0.00       0.00       0.33       2.53       0.00       2.53        0.03     8.02   0.612
  sub12                      4.14       0.00       0.00       0.54       2.41       0.00       2.41        0.02     6.83   0.583
  sub14                      4.14       0.00       0.00       0.37       2.50       0.00       2.50        0.02     6.17   0.604
  sub15                      4.14       0.00       0.00       1.24       1.92       0.00       1.92        0.03     8.36   0.464
  sub16                      4.14       0.00       0.00       1.37       1.85       0.00       1.85        0.02     5.99   0.448
  sub17                      4.14       0.00       0.00       1.32       1.88       0.00       1.88        0.02     4.84   0.454
  sub22                      4.14       0.00       0.00       1.78       1.57       0.00       1.57        0.10    27.45   0.380
  sub23                      4.14       0.00       0.00       1.53       1.74       0.00       1.74        0.08    23.39   0.420
  sub60                      4.14       0.00       0.00       0.50       1.49       0.00       1.49        0.45    38.23   0.360
  sub61                      4.14       0.00       0.00       0.70       1.65       0.00       1.65        0.51    48.94   0.398
  sub62                      4.14       0.00       0.00       0.33       1.75       0.00       1.75        0.54    49.85   0.422
  sub63                      4.14       0.00       0.00       1.20       1.48       0.00       1.48        0.45    45.77   0.359
  sub64                      4.14       0.00       0.00       0.62       1.42       0.00       1.42        0.43    36.23   0.343
  sub65                      4.14       0.00       0.00       0.54       1.43       0.00       1.43        0.44    36.68   0.346
  sub66                      4.14       0.00       0.00       1.20       1.25       0.00       1.25        0.38    33.51   0.302
  sub67                      4.14       0.00       0.00       0.33       1.98       0.00       1.98        0.61    64.41   0.478
  sub68                      4.14       0.00       0.00       0.58       1.76       0.00       1.76        0.54    54.19   0.426
  sub69                      4.14       0.00       0.00       0.62       1.96       0.00       1.96        0.46    54.10   0.475
  sub70                      4.14       2.00       0.00       2.09       2.24       0.00       2.24        0.51    39.90   0.365
  sub71                      4.14       0.00       0.00       0.33       1.65       0.00       1.65        0.39    34.54   0.399
  sub72                      4.14       0.00       0.00       0.29       1.09       0.00       1.09        0.22    15.48   0.263
  sub73                      4.14       2.18       0.00       2.15       2.17       0.00       2.17        0.51    34.04   0.344
  sub74                      4.14       0.00       0.00       3.10       0.60       0.00       0.60        0.24    30.24   0.145
  
  
  ******************
  Node Depth Summary
  ******************
  
  ---------------------------------------------------------------------------------
                                 Average  Maximum  Maximum  Time of Max    Reported
                                   Depth    Depth      HGL   Occurrence   Max Depth
  Node                 Type       Meters   Meters   Meters  days hr:min      Meters
  ---------------------------------------------------------------------------------
  WS02001211           JUNCTION     0.64     0.69     5.53     0  02:54        0.69
  WS02001212           JUNCTION     0.36     0.40     5.47     0  02:54        0.40
  WS02001213           JUNCTION     0.56     0.63     5.39     0  02:54        0.63
  WS02003069           JUNCTION     0.33     0.41     5.00     0  02:52        0.41
  WS02003072           JUNCTION     0.40     0.48     4.85     0  02:53        0.48
  WS02003073           JUNCTION     0.23     0.29     4.35     0  02:53        0.29
  WS02003060           JUNCTION     0.29     0.37     5.30     0  02:51        0.37
  WS02003066           JUNCTION     0.13     0.21     5.76     0  02:50        0.21
  WS02003059           JUNCTION     0.61     0.68     5.37     0  02:53        0.68
  WS02003067           JUNCTION     0.36     0.53     5.85     0  02:50        0.53
  WS02004401           JUNCTION     0.42     0.60     6.60     0  02:46        0.60
  WS02004402           JUNCTION     0.46     0.63     6.59     0  02:46        0.63
  WS02004403           JUNCTION     0.48     0.66     6.59     0  02:46        0.66
  WS02004404           JUNCTION     0.56     0.74     6.59     0  02:46        0.74
  WS02004406           JUNCTION     0.58     0.75     6.58     0  02:46        0.75
  WS02004409           JUNCTION     0.23     0.40     6.17     0  02:48        0.40
  WS02004410           JUNCTION     0.26     0.42     6.14     0  02:50        0.42
  WS02004411           JUNCTION     0.28     0.45     6.13     0  02:50        0.45
  WS02004412           JUNCTION     0.31     0.47     6.11     0  02:50        0.47
  WS02004413           JUNCTION     0.46     0.64     6.11     0  02:50        0.64
  WS02004405           JUNCTION     0.56     0.74     6.59     0  02:46        0.74
  WS02006109           JUNCTION     0.47     0.68     7.30     0  02:43        0.68
  WS02006110           JUNCTION     0.50     0.69     7.27     0  02:44        0.69
  WS02006111           JUNCTION     0.11     0.19     6.90     0  02:44        0.19
  WS02006112           JUNCTION     0.56     0.75     6.64     0  02:44        0.75
  WS02006113           JUNCTION     0.16     0.30     7.19     0  02:44        0.30
  WS02006115           JUNCTION     0.30     0.47     6.61     0  02:45        0.47
  WS02006116           JUNCTION     0.39     0.56     6.60     0  02:45        0.56
  WS02006230           JUNCTION     0.37     0.59     7.33     0  02:43        0.59
  WS02006231           JUNCTION     0.19     0.35     7.47     0  03:02        0.34
  WS02006232           JUNCTION     0.29     0.47     7.51     0  03:02        0.47
  WS02006234           JUNCTION     0.20     0.36     7.52     0  03:01        0.36
  WS02006235           JUNCTION     0.23     0.39     7.55     0  03:01        0.39
  WS02006238           JUNCTION     0.25     0.41     7.55     0  02:42        0.41
  WS02006240           JUNCTION     0.13     0.27     7.56     0  02:42        0.26
  WS02006242           JUNCTION     0.15     0.29     7.56     0  02:43        0.29
  WS02006243           JUNCTION     0.06     0.14     7.56     0  02:44        0.14
  WS02006245           JUNCTION     0.05     0.12     7.60     0  02:29        0.12
  WS02006247           JUNCTION     0.06     0.14     7.64     0  02:29        0.14
  WS02006248           JUNCTION     0.04     0.10     7.69     0  02:28        0.10
  WS02006249           JUNCTION     0.07     0.14     7.74     0  02:27        0.14
  WS02006239           JUNCTION     0.19     0.35     7.56     0  03:02        0.34
  WS02006251           JUNCTION     0.05     0.12     7.79     0  02:26        0.12
  WS02006252           JUNCTION     0.00     0.00     8.24     0  00:00        0.00
  WS02006253           JUNCTION     0.08     0.17     7.82     0  02:25        0.17
  WS02006256           JUNCTION     0.76     1.16     8.09     0  02:33        1.10
  WS02004138           JUNCTION     0.15     0.17     7.42     0  07:33        0.17
  WS02004407           JUNCTION     0.11     0.19     6.50     0  02:47        0.19
  WS02006228           JUNCTION     0.45     0.66     7.31     0  02:43        0.66
  WS02006229           JUNCTION     0.41     0.63     7.32     0  02:43        0.63
  WS02006280           JUNCTION     0.05     0.11     8.38     0  02:26        0.11
  WS02006284           JUNCTION     0.34     0.43     8.83     0  02:26        0.43
  WS02006287           JUNCTION     0.07     0.16     9.11     0  02:25        0.16
  WSF200               JUNCTION     0.10     0.18     5.41     0  02:50        0.18
  HS02004901           JUNCTION     0.10     0.18    10.01     0  02:23        0.18
  HS02004881           JUNCTION     0.01     0.02     9.04     0  02:24        0.02
  HS02004876           JUNCTION     0.03     0.08     9.11     0  02:24        0.08
  HS02004870           JUNCTION     0.01     0.03     9.31     0  02:25        0.03
  HS02004862           JUNCTION     0.01     0.03     9.41     0  02:26        0.03
  HS02004856           JUNCTION     0.07     0.09     9.52     0  02:25        0.09
  HS02004852           JUNCTION     0.01     0.02     9.53     0  02:27        0.02
  HS02004848           JUNCTION     0.01     0.02     9.62     0  02:24        0.02
  HS02004842           JUNCTION     0.33     0.35     9.62     0  02:24        0.35
  HS02004837           JUNCTION     0.02     0.04     9.62     0  02:24        0.04
  HS02004830           JUNCTION     0.04     0.05     9.52     0  02:24        0.05
  HS02004824           JUNCTION     0.02     0.03     9.43     0  02:28        0.03
  HS02004817           JUNCTION     0.42     0.48     9.33     0  02:26        0.48
  HS02004807           JUNCTION     0.11     0.16     9.33     0  02:26        0.16
  HS02004802           JUNCTION     0.14     0.20     9.33     0  02:26        0.20
  HS02004799           JUNCTION     0.10     0.19     9.40     0  02:24        0.19
  HS02004792           JUNCTION     0.02     0.06     9.59     0  02:23        0.06
  HS02004788           JUNCTION     0.02     0.05     9.95     0  02:24        0.05
  HS02004785           JUNCTION     0.03     0.10    10.00     0  02:24        0.10
  HS02004777           JUNCTION     0.13     0.20    10.00     0  02:24        0.20
  HS02004770           JUNCTION     0.10     0.17    10.01     0  02:24        0.17
  HS02004480           JUNCTION     0.06     0.14     9.38     0  02:24        0.14
  HS02004479           JUNCTION     0.09     0.18     9.38     0  02:24        0.18
  HS02004478           JUNCTION     0.05     0.09     9.32     0  02:25        0.09
  YS02001745           JUNCTION     0.11     0.35     7.87     0  07:50        0.35
  YS02001748           JUNCTION     0.34     0.79     7.87     0  07:50        0.79
  YS02001751           JUNCTION     0.50     0.99     7.87     0  07:50        0.99
  YS02001754           JUNCTION     0.74     1.26     7.87     0  07:50        1.26
  YS02001762           JUNCTION     0.92     1.47     7.87     0  07:50        1.47
  YS02001765           JUNCTION     0.88     1.42     7.87     0  07:50        1.42
  YS02001767           JUNCTION     0.84     1.38     7.87     0  07:50        1.38
  YS02001770           JUNCTION     0.84     1.38     7.87     0  07:50        1.38
  YS02001774           JUNCTION     0.90     1.46     7.88     0  06:21        1.45
  YS02001779           JUNCTION     0.67     1.20     7.89     0  06:21        1.19
  YS02001882           JUNCTION     0.22     0.33     7.04     0  03:01        0.33
  YS02001884           JUNCTION     0.31     0.43     7.04     0  03:01        0.43
  YS02001759           JUNCTION     0.95     1.51     7.87     0  07:50        1.51
  YS02001887           JUNCTION     0.39     0.50     7.04     0  03:01        0.50
  YS02001890           JUNCTION     0.42     0.54     7.04     0  03:01        0.54
  YS02001898           JUNCTION     0.20     0.29     7.03     0  03:01        0.29
  YS02001901           JUNCTION     0.31     0.42     7.03     0  03:02        0.42
  YS02001904           JUNCTION     0.29     0.39     7.02     0  03:02        0.39
  YS02001907           JUNCTION     0.61     0.74     7.03     0  03:01        0.74
  YS02001910           JUNCTION     0.40     0.52     7.03     0  03:01        0.52
  YS02001915           JUNCTION     0.21     0.31     7.02     0  03:02        0.31
  YS02001918           JUNCTION     0.06     0.07     7.14     0  03:05        0.07
  YS02001619           JUNCTION     0.47     0.94     7.87     0  07:50        0.94
  YS02001629           JUNCTION     0.79     1.32     7.87     0  07:50        1.32
  YS02001641           JUNCTION     0.89     1.43     7.87     0  07:50        1.43
  YS02001644           JUNCTION     0.89     1.44     7.87     0  07:50        1.44
  YS02001652           JUNCTION     0.75     1.28     7.87     0  07:50        1.28
  YS02001655           JUNCTION     0.53     1.02     7.87     0  07:50        1.02
  YS02001920           JUNCTION     0.15     0.16     7.17     0  03:04        0.16
  YS02001923           JUNCTION     0.05     0.06     7.32     0  03:02        0.06
  YS02001926           JUNCTION     0.11     0.13     7.58     0  03:02        0.13
  YS02001929           JUNCTION     0.05     0.06     7.76     0  03:01        0.06
  YS02001658           JUNCTION     0.30     0.73     7.87     0  07:50        0.73
  YS02001661           JUNCTION     0.19     0.47     7.87     0  07:50        0.47
  YS02001664           JUNCTION     0.05     0.08     8.01     0  02:57        0.08
  YS02001622           JUNCTION     0.48     0.97     7.87     0  07:50        0.97
  YS02001633           JUNCTION     0.88     1.42     7.87     0  07:50        1.42
  YS02001649           JUNCTION     0.93     1.48     7.87     0  07:50        1.48
  YS02001757           JUNCTION     1.05     1.61     7.87     0  07:50        1.61
  YS02001895           JUNCTION     0.19     0.29     7.04     0  03:01        0.29
  YS02001625           JUNCTION     0.75     1.27     7.87     0  07:50        1.27
  YS02163301           JUNCTION     0.82     1.36     7.87     0  07:50        1.36
  YS02163601           JUNCTION     0.93     1.47     7.87     0  07:50        1.47
  YS02164001           JUNCTION     0.87     1.41     7.87     0  07:50        1.41
  YS02001647           JUNCTION     0.73     1.26     7.87     0  07:50        1.26
  YSB1154              JUNCTION     0.23     0.33     9.39     0  02:24        0.33
  YSB6556              JUNCTION     0.13     0.22     9.39     0  02:24        0.22
  YSB1174              JUNCTION     0.18     0.28     9.39     0  02:24        0.28
  YSB1171              JUNCTION     0.38     0.48     9.39     0  02:24        0.48
  YS02006553           JUNCTION     0.62     0.74     7.02     0  03:02        0.74
  YS02006561           JUNCTION     0.11     0.16     6.82     0  03:02        0.16
  YS02006556           JUNCTION     0.59     0.71     7.02     0  03:02        0.71
  YS02006558           JUNCTION     0.63     0.76     7.02     0  03:02        0.76
  YS02001783           JUNCTION     0.18     0.28     6.42     0  03:02        0.28
  YS02001784           JUNCTION     0.21     0.31     6.38     0  03:03        0.31
  YS02001786           JUNCTION     0.18     0.27     6.30     0  03:03        0.27
  YS02001788           JUNCTION     0.13     0.19     6.17     0  03:03        0.19
  YS02001790           JUNCTION     0.16     0.23     5.88     0  03:03        0.23
  YS02001791           JUNCTION     0.10     0.16     5.63     0  03:03        0.16
  YS02001793           JUNCTION     0.13     0.60     5.43     0  03:10        0.57
  WS02004139           JUNCTION     0.58     0.63     5.54     0  02:54        0.63
  WSC                  OUTFALL      0.23     0.29     0.96     0  02:54        0.29
  3                    OUTFALL      0.06     0.13     6.13     0  02:33        0.11
  4                    OUTFALL      0.00     0.00     7.00     0  00:00        0.00
  5                    OUTFALL      0.00     0.00     5.00     0  00:00        0.00
  JK-storage           STORAGE      3.81     4.57     5.37     0  02:51        4.56
  CC-storage           STORAGE      0.38     0.87     7.87     0  07:50        0.87
  XR-storage           STORAGE      6.63     7.00     5.00     0  04:20        7.00
  
  
  *******************
  Node Inflow Summary
  *******************
  
  -------------------------------------------------------------------------------------------------
                                  Maximum  Maximum                  Lateral       Total        Flow
                                  Lateral    Total  Time of Max      Inflow      Inflow     Balance
                                   Inflow   Inflow   Occurrence      Volume      Volume       Error
  Node                 Type           LPS      LPS  days hr:min    10^6 ltr    10^6 ltr     Percent
  -------------------------------------------------------------------------------------------------
  WS02001211           JUNCTION      7.35   294.20     0  07:33       0.207        6.39       0.596
  WS02001212           JUNCTION      0.00   292.67     0  02:49           0        6.36       0.314
  WS02001213           JUNCTION      0.00   292.69     0  02:49           0        6.34       0.330
  WS02003069           JUNCTION      0.32   513.89     0  02:52     0.00902        8.44       0.244
  WS02003072           JUNCTION      0.00   513.90     0  02:52           0        8.42       0.322
  WS02003073           JUNCTION      1.82   515.72     0  02:53      0.0514        8.44       0.347
  WS02003060           JUNCTION     16.53   513.50     0  02:51       0.466        8.45       0.238
  WS02003066           JUNCTION      0.00   208.07     0  02:50           0        1.71       0.115
  WS02003059           JUNCTION      0.00   293.45     0  03:37           0        6.32       0.591
  WS02003067           JUNCTION      0.00   208.07     0  02:50           0        1.71       0.300
  WS02004401           JUNCTION      0.00   235.91     0  02:45           0        1.84       0.660
  WS02004402           JUNCTION      0.00   232.03     0  02:45           0        1.83       0.666
  WS02004403           JUNCTION      0.00   229.59     0  02:45           0        1.81       0.640
  WS02004404           JUNCTION      0.16   227.67     0  02:46     0.00457        1.81       0.530
  WS02004406           JUNCTION      0.00   224.56     0  02:46           0        1.78       1.294
  WS02004409           JUNCTION      0.00   223.15     0  02:47           0        1.76       0.286
  WS02004410           JUNCTION      0.00   219.94     0  02:47           0        1.75       0.397
  WS02004411           JUNCTION      0.00   216.08     0  02:48           0        1.75       0.463
  WS02004412           JUNCTION      0.00   213.08     0  02:48           0        1.74       0.579
  WS02004413           JUNCTION      0.00   209.85     0  02:49           0        1.73       0.979
  WS02004405           JUNCTION      0.04   226.23     0  02:46     0.00107         1.8       0.789
  WS02006109           JUNCTION      1.23   248.59     0  02:42      0.0347        1.88       0.600
  WS02006110           JUNCTION      0.00   247.19     0  02:42           0        1.87       0.560
  WS02006111           JUNCTION      0.00   247.75     0  02:44           0        1.86       0.060
  WS02006112           JUNCTION      4.84   248.58     0  02:44      0.0161        1.87       0.873
  WS02006113           JUNCTION      0.00   246.31     0  02:43           0        1.86       0.138
  WS02006115           JUNCTION      0.00   244.89     0  02:44           0        1.86       0.490
  WS02006116           JUNCTION      0.00   240.29     0  02:44           0        1.85       0.509
  WS02006230           JUNCTION     10.28   156.51     0  03:02        0.29        1.24       0.431
  WS02006231           JUNCTION      0.00   150.04     0  02:41           0       0.948      -0.139
  WS02006232           JUNCTION      0.00   153.90     0  02:39           0       0.955       0.733
  WS02006234           JUNCTION      0.00   154.38     0  02:39           0       0.947      -0.872
  WS02006235           JUNCTION      0.00   176.87     0  02:52           0        1.17       0.880
  WS02006238           JUNCTION      0.00   125.91     0  02:51           0       0.428      -0.085
  WS02006240           JUNCTION      0.00    54.78     0  02:53           0       0.235       0.560
  WS02006242           JUNCTION      0.00    44.33     0  02:54           0       0.151       0.789
  WS02006243           JUNCTION      0.00    20.68     0  02:29           0      0.0993       0.120
  WS02006245           JUNCTION      0.00    20.69     0  02:29           0      0.0909       0.692
  WS02006247           JUNCTION      0.00    20.71     0  02:28           0       0.091       0.128
  WS02006248           JUNCTION      0.00    20.72     0  02:27           0      0.0911       0.039
  WS02006249           JUNCTION      0.00    20.77     0  02:26           0      0.0914       0.379
  WS02006239           JUNCTION      0.00    75.63     0  02:52           0       0.332       0.049
  WS02006251           JUNCTION      0.08    20.81     0  02:25     0.00217      0.0915       0.085
  WS02006252           JUNCTION      0.00     0.00     0  00:00           0           0       0.000 ltr
  WS02006253           JUNCTION      0.74    20.75     0  02:24     0.00209      0.0895       0.171
  WS02006256           JUNCTION      0.00   300.00     0  02:33           0        1.78       0.635
  WS02004138           JUNCTION      0.00   285.00     0  02:11           0        6.22       0.064
  WS02004407           JUNCTION      0.00   223.52     0  02:47           0        1.76       0.135
  WS02006228           JUNCTION      0.00   247.89     0  02:42           0        1.85       0.399
  WS02006229           JUNCTION      0.00   249.58     0  02:42           0        1.87       0.609
  WS02006280           JUNCTION      0.00   113.60     0  02:26           0       0.631       0.012
  WS02006284           JUNCTION      0.10   113.60     0  02:25      0.0027       0.633       0.181
  WS02006287           JUNCTION      0.00   113.51     0  02:25           0       0.631       0.110
  WSF200               JUNCTION      0.00   208.05     0  02:50           0         1.7       0.088
  HS02004901           JUNCTION      5.99     5.99     0  02:15      0.0194      0.0196       9.872
  HS02004881           JUNCTION      2.42    20.18     0  02:24     0.00846      0.0874       0.068
  HS02004876           JUNCTION      3.84    17.95     0  02:24      0.0162      0.0795       0.657
  HS02004870           JUNCTION      4.26    14.19     0  02:24       0.016      0.0635       0.168
  HS02004862           JUNCTION      3.59    10.22     0  02:25      0.0215      0.0476       0.350
  HS02004856           JUNCTION      3.16     6.66     0  02:24       0.012      0.0276       5.495
  HS02004852           JUNCTION      0.00     3.71     0  02:25           0      0.0156       0.307
  HS02004848           JUNCTION      6.95     6.95     0  02:27      0.0376      0.0376       0.114
  HS02004842           JUNCTION      0.00     4.49     0  00:03           0      0.0351      58.941
  HS02004837           JUNCTION     13.17    16.26     0  02:22       0.207       0.229       0.346
  HS02004830           JUNCTION      0.15    16.40     0  02:24     0.00423       0.219       0.564
  HS02004824           JUNCTION      7.83    24.13     0  02:28      0.0495       0.267       0.202
  HS02004817           JUNCTION      0.60    24.73     0  02:28      0.0169       0.284       6.233
  HS02004807           JUNCTION      8.02    32.05     0  02:26      0.0294       0.297       1.445
  HS02004802           JUNCTION      0.00    32.12     0  02:28           0       0.292       1.410
  HS02004799           JUNCTION      6.17    69.38     0  02:22      0.0238       0.307       0.736
  HS02004792           JUNCTION     27.73    63.38     0  02:22       0.107       0.284       0.148
  HS02004788           JUNCTION     10.03    37.07     0  02:24      0.0801       0.178       0.217
  HS02004785           JUNCTION      0.15    27.39     0  02:23     0.00423      0.0997       0.483
  HS02004777           JUNCTION      0.03    27.64     0  02:21    0.000846      0.0999       5.459
  HS02004770           JUNCTION     23.39    28.52     0  02:18      0.0828       0.101       3.178
  HS02004480           JUNCTION      0.00    81.68     0  02:24           0       0.354       0.191
  HS02004479           JUNCTION      0.00    12.56     0  02:26           0      0.0594       1.240
  HS02004478           JUNCTION      0.00   113.51     0  02:25           0       0.631       0.105
  YS02001745           JUNCTION     38.23    49.69     0  06:01       0.451        0.47       1.055
  YS02001748           JUNCTION      0.04    62.22     0  06:03     0.00127       0.477       3.891
  YS02001751           JUNCTION      0.01    74.06     0  04:13     0.00031        0.44       5.579
  YS02001754           JUNCTION      0.26    55.13     0  03:14     0.00733        0.42       6.368
  YS02001762           JUNCTION      0.00    51.30     0  03:22           0       0.461       5.100
  YS02001765           JUNCTION      0.00    56.20     0  03:11           0       0.463       5.724
  YS02001767           JUNCTION      0.54    57.32     0  02:36      0.0151       0.485       8.089
  YS02001770           JUNCTION     50.00    60.01     0  04:26       0.541       0.565       6.277
  YS02001774           JUNCTION      0.00    34.65     0  04:25           0      0.0866      44.065
  YS02001779           JUNCTION      0.01    34.11     0  04:26    0.000141      0.0368      73.405
  YS02001882           JUNCTION      0.00     2.12     0  02:13           0     0.00339      72.943
  YS02001884           JUNCTION      0.00     6.36     0  02:13           0      0.0138      45.623
  YS02001759           JUNCTION     48.98   102.17     0  03:01       0.508       0.933       2.665
  YS02001887           JUNCTION     64.86    64.86     0  02:54       0.623       0.629       1.058
  YS02001890           JUNCTION      0.00    64.56     0  02:57           0       0.611       1.201
  YS02001898           JUNCTION      0.00    64.33     0  03:00           0         0.6       0.303
  YS02001901           JUNCTION      0.00    64.32     0  03:01           0         0.6       0.831
  YS02001904           JUNCTION      0.00    64.21     0  03:02           0         0.6       0.776
  YS02001907           JUNCTION      0.00   116.88     0  03:02           0        1.28       1.684
  YS02001910           JUNCTION      0.00    52.77     0  03:01           0       0.687       1.394
  YS02001915           JUNCTION     34.56    52.70     0  03:01        0.39       0.691       0.566
  YS02001918           JUNCTION      0.00    18.36     0  03:04           0       0.301       0.273
  YS02001619           JUNCTION     33.51    33.51     0  03:01       0.384       0.384       3.190
  YS02001629           JUNCTION      0.00    44.08     0  04:24           0       0.306      10.040
  YS02001641           JUNCTION      0.00    65.14     0  03:06           0       0.639       3.617
  YS02001644           JUNCTION     36.27    98.19     0  03:05       0.432        1.04       2.679
  YS02001652           JUNCTION      0.00    52.80     0  02:58           0       0.409       6.326
  YS02001655           JUNCTION      0.15    69.08     0  04:15     0.00434       0.433       5.991
  YS02001920           JUNCTION      2.87    18.37     0  03:02      0.0809       0.303       0.562
  YS02001923           JUNCTION      0.04    15.50     0  03:02     0.00106       0.222       0.099
  YS02001926           JUNCTION      0.05    15.52     0  03:01     0.00147       0.223       0.721
  YS02001929           JUNCTION     15.48    15.48     0  03:01       0.222       0.222       0.094
  YS02001658           JUNCTION      0.00    50.65     0  04:15           0       0.448       4.204
  YS02001661           JUNCTION      0.00    45.77     0  02:57           0       0.452       2.138
  YS02001664           JUNCTION     45.77    45.77     0  02:57       0.449       0.449       0.027
  YS02001622           JUNCTION      0.00    36.16     0  04:18           0       0.372       9.110
  YS02001633           JUNCTION     36.88    69.51     0  02:40       0.446       0.701       4.923
  YS02001649           JUNCTION      0.00   145.28     0  02:59           0        1.36       2.951
  YS02001757           JUNCTION      0.00   287.23     0  03:04           0        2.58       3.766
  YS02001895           JUNCTION      0.00    64.38     0  02:59           0       0.603       0.516
  YS02001625           JUNCTION      0.00    43.06     0  04:38           0       0.344      12.847
  YS02163301           JUNCTION      0.00    36.79     0  02:41           0       0.281       9.877
  YS02163601           JUNCTION      0.11    70.56     0  02:41      0.0031       0.667       4.899
  YS02164001           JUNCTION      0.00    65.83     0  03:06           0       0.645       3.593
  YS02001647           JUNCTION      0.00    97.88     0  03:08           0           1       3.018
  YSB1154              JUNCTION      6.83     6.83     0  02:21      0.0288      0.0302       5.030
  YSB6556              JUNCTION      0.00     6.77     0  02:24           0      0.0312       4.152
  YSB1174              JUNCTION      6.83     6.83     0  02:14      0.0211      0.0221       6.175
  YSB1171              JUNCTION      0.00    12.57     0  02:23           0      0.0588      12.030
  YS02006553           JUNCTION      0.00   117.01     0  03:04           0        1.26       1.098
  YS02006561           JUNCTION      0.00   171.20     0  03:02           0        1.78       0.029
  YS02006556           JUNCTION      0.00   117.17     0  03:04           0        1.27       0.786
  YS02006558           JUNCTION     55.07   171.22     0  03:02       0.567        1.81       0.238
  YS02001783           JUNCTION      0.00   171.20     0  03:02           0        1.78       0.068
  YS02001784           JUNCTION      1.06   172.25     0  03:02      0.0299        1.81       0.114
  YS02001786           JUNCTION      0.06   172.29     0  03:03     0.00159        1.81       0.110
  YS02001788           JUNCTION      0.07   172.35     0  03:03       0.002        1.81       0.063
  YS02001790           JUNCTION      0.15   172.51     0  03:03     0.00437        1.82       0.080
  YS02001791           JUNCTION      0.00   172.50     0  03:03           0        1.81       0.038
  YS02001793           JUNCTION      0.00   317.76     0  03:13           0        1.83       0.089
  WS02004139           JUNCTION      0.32   285.32     0  07:33     0.00905        6.22       0.579
  WSC                  OUTFALL       0.00   515.66     0  02:54           0        8.41       0.000
  3                    OUTFALL       0.00   252.04     0  02:33           0       0.874       0.000
  4                    OUTFALL       0.00     0.00     0  00:00           0           0       0.000 ltr
  5                    OUTFALL       0.00     0.00     0  00:00           0           0       0.000 ltr
  JK-storage           STORAGE       0.00   646.96     0  03:14           0        1.98       0.380
  CC-storage           STORAGE       0.00   254.68     0  03:02           0        2.48       2.108
  XR-storage           STORAGE     262.77   262.77     0  03:01        6.39        6.99       0.000
  
  
  **********************
  Node Surcharge Summary
  **********************
  
  Surcharging occurs when water rises above the top of the highest conduit.
  ---------------------------------------------------------------------
                                               Max. Height   Min. Depth
                                   Hours       Above Crown    Below Rim
  Node                 Type      Surcharged         Meters       Meters
  ---------------------------------------------------------------------
  YS02001754           JUNCTION        2.13          0.214        0.936
  YS02001762           JUNCTION        3.77          0.471        0.679
  YS02001765           JUNCTION        3.49          0.421        0.679
  YS02001767           JUNCTION        3.29          0.382        0.648
  YS02001770           JUNCTION        3.07          0.346        0.574
  YS02001774           JUNCTION        3.65          0.456        0.594
  YS02001779           JUNCTION        1.91          0.203        0.477
  YS02001759           JUNCTION        3.95          0.508        0.702
  YS02001641           JUNCTION        3.57          0.435        0.665
  YS02001644           JUNCTION        3.59          0.440        0.480
  YS02001652           JUNCTION        2.39          0.246        0.884
  YS02001655           JUNCTION        0.27          0.022        1.178
  YS02001633           JUNCTION        3.37          0.398        0.662
  YS02001649           JUNCTION        3.82          0.482        0.568
  YS02001757           JUNCTION        4.46          0.611        0.599
  YS02001625           JUNCTION        2.55          0.268        0.512
  YS02163301           JUNCTION        3.13          0.355        0.675
  YS02163601           JUNCTION        3.78          0.474        0.606
  YS02164001           JUNCTION        3.45          0.414        0.686
  YS02001647           JUNCTION        2.50          0.262        0.638
  
  
  *********************
  Node Flooding Summary
  *********************
  
  No nodes were flooded.
  
  
  **********************
  Storage Volume Summary
  **********************
  
  --------------------------------------------------------------------------------------------------
                         Average     Avg  Evap Exfil       Maximum     Max    Time of Max    Maximum
                          Volume    Pcnt  Pcnt  Pcnt        Volume    Pcnt     Occurrence    Outflow
  Storage Unit           1000 m3    Full  Loss  Loss       1000 m3    Full    days hr:min        LPS
  --------------------------------------------------------------------------------------------------
  JK-storage               0.192      66     0     0         0.230      79       0  02:51     442.19
  CC-storage               1.048       7     0     0         2.428      15       0  07:50       0.00
  XR-storage               0.795      86     0     0         0.840      91       0  04:20     285.00
  
  
  ***********************
  Outfall Loading Summary
  ***********************
  
  -----------------------------------------------------------
                         Flow       Avg       Max       Total
                         Freq      Flow      Flow      Volume
  Outfall Node           Pcnt       LPS       LPS    10^6 ltr
  -----------------------------------------------------------
  WSC                   99.99    343.27    515.66       8.412
  3                     58.18    151.64    252.04       0.874
  4                      0.00      0.00      0.00       0.000
  5                      0.00      0.00      0.00       0.000
  -----------------------------------------------------------
  System                39.54    494.91    741.68       9.286
  
  
  ********************
  Link Flow Summary
  ********************
  
  -----------------------------------------------------------------------------
                                 Maximum  Time of Max   Maximum    Max/    Max/
                                  |Flow|   Occurrence   |Veloc|    Full    Full
  Link                 Type          LPS  days hr:min     m/sec    Flow   Depth
  -----------------------------------------------------------------------------
  WS02003066WSF200     CONDUIT    208.05     0  02:50      2.22    0.04    0.14
  WS02006287WS02006284 CONDUIT    113.50     0  02:25      1.31    0.05    0.17
  WS02006284WS02006280 CONDUIT    113.60     0  02:26      1.56    0.05    0.15
  WS02006280WS02006229 CONDUIT    113.60     0  02:26      2.50    0.02    0.11
  WS02006229WS02006228 CONDUIT    247.89     0  02:42      0.59    0.82    0.79
  WS02006256WS02006235 CONDUIT    166.34     0  04:32      2.56    1.76    1.00
  WS02006253WS02006251 CONDUIT     20.73     0  02:25      0.38    0.06    0.20
  WS02006252WS02006251 CONDUIT      0.00     0  00:00      0.00    0.00    0.00
  WS02006251WS02006249 CONDUIT     20.77     0  02:26      0.42    0.06    0.19
  WS02006249WS02006248 CONDUIT     20.72     0  02:27      0.50    0.11    0.16
  WS02006248WS02006247 CONDUIT     20.71     0  02:28      0.50    0.05    0.16
  WS02006247WS02006245 CONDUIT     20.69     0  02:29      0.45    0.16    0.18
  WS02006245WS02006243 CONDUIT     20.68     0  02:29      0.57    0.06    0.17
  WS02006243WS02006242 CONDUIT     30.43     0  02:45      0.45    0.07    0.29
  WS02006242WS02006240 CONDUIT     43.93     0  02:44      0.50    0.17    0.39
  WS02006240WS02006239 CONDUIT     59.46     0  02:44      0.58    0.19    0.41
  WS02006239WS02006238 CONDUIT     91.05     0  02:43      0.66    0.29    0.52
  WS02006238WS02006235 CONDUIT    127.16     0  02:43      1.07    0.28    0.57
  WS02006235WS02006234 CONDUIT    154.38     0  02:39      0.93    1.63    0.52
  WS02006234WS02006232 CONDUIT    153.90     0  02:39      0.83    0.31    0.59
  WS02006232WS02006231 CONDUIT    150.04     0  02:41      0.67    0.31    0.57
  WS02006231WS02006230 CONDUIT    146.23     0  03:02      0.97    2.22    0.41
  WS02006230WS02006229 CONDUIT    156.75     0  03:02      0.52    3.49    0.83
  WS02006228WS02006109 CONDUIT    247.36     0  02:42      0.56    1.08    0.83
  WS02006116WS02004401 CONDUIT    235.91     0  02:45      0.50    0.33    0.58
  WS02006115WS02006116 CONDUIT    240.29     0  02:44      0.64    0.31    0.49
  WS02006113WS02006111 CONDUIT    247.75     0  02:44      1.89    0.30    0.31
  WS02006112WS02006115 CONDUIT    244.89     0  02:44      0.49    0.14    0.61
  WS02006111WS02006112 CONDUIT    245.88     0  02:44      0.83    0.12    0.57
  WS02006110WS02006113 CONDUIT    246.31     0  02:43      0.76    0.22    0.62
  WS02006109WS02006110 CONDUIT    247.19     0  02:42      0.58    0.48    0.79
  WS02004411WS02004412 CONDUIT    213.08     0  02:48      0.74    0.30    0.46
  WS02004401WS02004402 CONDUIT    232.03     0  02:45      0.46    0.28    0.61
  WS02004413WS02003067 CONDUIT    208.07     0  02:50      0.66    0.09    0.42
  WS02004412WS02004413 CONDUIT    209.85     0  02:49      0.68    0.14    0.56
  WS02004410WS02004411 CONDUIT    216.08     0  02:48      0.67    0.30    0.44
  WS02004409WS02004410 CONDUIT    219.94     0  02:47      0.73    0.28    0.41
  WS02004407WS02004409 CONDUIT    223.15     0  02:47      1.17    0.08    0.29
  WS02004406WS02004407 CONDUIT    223.52     0  02:47      0.61    0.10    0.47
  WS02004405WS02004406 CONDUIT    224.56     0  02:46      0.36    0.44    0.74
  WS02004404WS02004405 CONDUIT    226.19     0  02:46      0.37    2.22    0.74
  WS02004403WS02004404 CONDUIT    227.51     0  02:46      0.39    0.16    0.70
  WS02004402WS02004403 CONDUIT    229.59     0  02:45      0.43    0.33    0.65
  WS02004139WS02001211 CONDUIT    286.86     0  07:33      0.54    0.36    0.51
  WS02004138WS02004139 CONDUIT    285.00     0  07:33      2.39    0.06    0.38
  WS02003067WS02003066 CONDUIT    208.07     0  02:50      0.71    0.07    0.31
  WS02001213WS02003059 CONDUIT    293.45     0  03:37      0.59    0.48    0.64
  WS02001212WS02001213 CONDUIT    292.69     0  02:49      1.19    0.45    0.35
  WS02001211WS02001212 CONDUIT    292.67     0  02:49      0.67    0.22    0.55
  WS02003072WS02003073 CONDUIT    513.90     0  02:53      1.40    1.11    0.36
  WS02003069WS02003072 CONDUIT    513.90     0  02:52      1.34    0.25    0.37
  WS02003060WS02003069 CONDUIT    513.57     0  02:52      1.61    0.20    0.33
  WS02003059WS02003060 CONDUIT    294.86     0  03:37      0.82    0.19    0.52
  HS02004901HS02004770 CONDUIT      5.41     0  02:22      0.03    0.02    0.25
  HS02004876HS02004881 CONDUIT     17.96     0  02:25      0.36    0.19    0.07
  HS02004870HS02004876 CONDUIT     14.18     0  02:25      0.26    0.01    0.08
  HS02004842HS02004848 CONDUIT      3.42     0  02:37      0.02    0.00    0.26
  HS02004837HS02004842 CONDUIT      4.49     0  00:03      0.42    0.00    0.27
  HS02004830HS02004837 CONDUIT     16.25     0  02:24      0.38    0.02    0.06
  HS02004824HS02004830 CONDUIT     16.40     0  02:25      0.42    0.02    0.06
  HS02004817HS02004824 CONDUIT     24.13     0  02:28      0.17    0.01    0.37
  HS02004770HS02004777 CONDUIT     27.61     0  02:21      0.15    0.05    0.27
  HS02004799HS02004480 CONDUIT     69.27     0  02:23      0.43    0.09    0.23
  HS02004792HS02004799 CONDUIT     63.35     0  02:23      0.50    0.04    0.18
  HS02004788HS02004792 CONDUIT     37.04     0  02:24      0.66    0.02    0.08
  HS02004785HS02004788 CONDUIT     27.28     0  02:24      0.38    0.21    0.10
  HS02004777HS02004785 CONDUIT     27.24     0  02:23      0.18    0.03    0.21
  HS02004480HS02004478 CONDUIT     81.67     0  02:24      0.74    0.34    0.16
  HS02004479HS02004480 CONDUIT     12.64     0  02:27      0.15    0.01    0.23
  HS02004862HS02004870 CONDUIT     10.19     0  02:26      0.36    0.01    0.04
  HS02004848HS02004852 CONDUIT      3.71     0  02:25      0.23    0.00    0.02
  HS02004856HS02004862 CONDUIT      6.65     0  02:25      0.26    0.01    0.04
  HS02004852HS02004856 CONDUIT      3.68     0  02:27      0.07    0.00    0.08
  HS02004802HS02004478 CONDUIT     32.25     0  02:29      0.23    0.03    0.21
  HS02004478WS02006287 CONDUIT    113.51     0  02:25      1.00    0.03    0.13
  HS02004817HS02004807 CONDUIT     24.94     0  02:30      0.08    0.01    0.46
  HS02004807HS02004802 CONDUIT     32.12     0  02:28      0.19    0.06    0.25
  YS02001759YS02001757 CONDUIT     97.67     0  03:01      0.14    0.07    1.00
  YS02001762YS02001759 CONDUIT     53.57     0  03:01      0.17    0.06    1.00
  YS02001765YS02001762 CONDUIT     51.30     0  03:22      0.22    0.05    1.00
  YS02001770YS02001767 CONDUIT     56.79     0  02:36      0.29    0.22    1.00
  YS02001774YS02001770 CONDUIT     34.65     0  04:25      0.12    0.02    1.00
  YS02001779YS02001774 CONDUIT     34.10     0  04:26      0.06    0.02    1.00
  YS02001649YS02001757 CONDUIT    145.24     0  02:58      0.20    0.09    1.00
  YS02001767YS02001765 CONDUIT     56.20     0  03:11      0.25    0.07    1.00
  YS02006561YS02001783 CONDUIT    171.20     0  03:02      1.52    0.09    0.28
  YS02001783YS02001784 CONDUIT    171.19     0  03:02      1.01    0.24    0.37
  YS02001784YS02001785 CONDUIT    172.24     0  03:03      1.05    0.40    0.36
  YS02001788YS02001790 CONDUIT    172.35     0  03:03      1.60    0.13    0.27
  YS02001790YS02001791 CONDUIT    172.50     0  03:03      1.87    0.19    0.25
  YS02001791YS02001793 CONDUIT    182.81     0  03:07      3.65    0.08    0.47
  YS02001910YS02001907 CONDUIT     52.77     0  03:04      0.49    0.03    0.62
  YS02001786YS02001788 CONDUIT    172.28     0  03:03      1.45    0.33    0.29
  YS02001915YS02001910 CONDUIT     52.77     0  03:01      0.44    0.03    0.41
  YS02001918YS02001915 CONDUIT     18.34     0  03:05      0.44    0.01    0.19
  YS02001923YS02001920 CONDUIT     15.50     0  03:02      0.32    0.01    0.11
  YS02001926YS02001923 CONDUIT     15.46     0  03:02      0.38    0.02    0.10
  YS02001929YS02001926 CONDUIT     15.47     0  03:01      0.39    0.01    0.10
  YS02001920YS02001918 CONDUIT     18.36     0  03:04      0.35    0.02    0.12
  YS02001629YS02163301 CONDUIT     36.79     0  02:41      0.09    0.05    1.00
  YS02001619YS02001622 CONDUIT     36.16     0  04:18      0.54    0.05    0.96
  YS02001622YS02001625 CONDUIT     35.59     0  02:50      0.18    0.02    0.98
  YS02001625YS02001629 CONDUIT     44.08     0  04:24      0.17    0.02    0.97
  YS02163301YS02001633 CONDUIT     36.09     0  02:40      0.08    0.03    1.00
  YS02163601YS02164001 CONDUIT     65.83     0  03:06      0.11    0.06    1.00
  YS02164001YS02001641 CONDUIT     65.14     0  03:06      0.11    0.09    1.00
  YS02001641YS02001644 CONDUIT     62.96     0  03:05      0.12    0.20    1.00
  YS02001647YS02001649 CONDUIT    100.07     0  04:23      0.17    0.05    1.00
  YS02006553YS02006556 CONDUIT    117.17     0  03:04      0.20    0.10    0.71
  YS02006556YS02006558 CONDUIT    117.28     0  03:04      0.19    0.09    0.73
  YSB6556YSB1171       CONDUIT      6.83     0  02:27      0.04    0.01    0.50
  YS02001907YS02006553 CONDUIT    117.01     0  03:04      0.16    0.14    0.80
  YS02006558YS02006561 CONDUIT    171.20     0  03:02      1.96    0.38    0.35
  YS02001633YS02163601 CONDUIT     70.45     0  02:41      0.12    0.07    1.00
  YS02001644YS02001647 CONDUIT     97.88     0  03:08      0.18    0.06    1.00
  YS02001745YS02001748 CONDUIT     62.18     0  06:03      1.19    0.02    0.53
  YS02001748YS02001751 CONDUIT     74.05     0  04:13      0.93    0.04    0.89
  YS02001751YS02001754 CONDUIT     54.87     0  03:14      0.85    0.03    1.00
  YS02001754YS02001757 CONDUIT     63.72     0  03:19      0.33    0.03    1.00
  YS02001882YS02001884 CONDUIT      2.12     0  02:13      0.06    0.00    0.35
  YS02001884YS02001887 CONDUIT      6.36     0  02:13      0.05    0.01    0.44
  YS02001890YS02001895 CONDUIT     64.38     0  02:59      0.21    0.03    0.41
  YS02001895YS02001898 CONDUIT     64.33     0  03:00      0.42    0.11    0.27
  YS02001898YS02001901 CONDUIT     64.32     0  03:01      0.26    0.04    0.35
  YS02001901YS02001904 CONDUIT     64.21     0  03:02      0.21    0.10    0.41
  YS02001904YS02001907 CONDUIT     64.41     0  03:02      0.14    0.02    0.57
  YS02001887YS02001890 CONDUIT     64.56     0  02:57      0.17    0.11    0.49
  YS02001652YS02001649 CONDUIT     63.29     0  04:16      0.26    0.03    1.00
  YS02001655YS02001652 CONDUIT     52.80     0  02:58      0.91    0.03    1.00
  YS02001658YS02001655 CONDUIT     68.92     0  04:15      1.07    0.03    0.86
  YS02001661YS02001658 CONDUIT     45.77     0  02:57      1.21    0.02    0.56
  YS02001664YS02001661 CONDUIT     45.77     0  02:57      0.82    0.01    0.25
  YSB1154YSB6556       CONDUIT      6.77     0  02:24      0.19    0.01    0.39
  YSB1174YSB1171       CONDUIT      6.30     0  02:18      0.03    0.01    0.51
  YSB1171HS02004479    CONDUIT     12.56     0  02:26      0.54    0.01    0.38
  HS02004881HS02006253 CONDUIT     20.18     0  02:24      1.29    0.00    0.02
  YS02001793JiankangQianchi CONDUIT    646.96     0  03:14      1.38    0.05    0.80
  YS02001757CaochengTiaoxuchi CONDUIT    254.68     0  03:02      0.61    0.11    0.94
  WSF200WS02003060     CONDUIT    208.03     0  02:50      1.19    0.05    0.23
  1                    CONDUIT    515.66     0  02:54      2.77    0.18    0.29
  2                    CONDUIT      0.00     0  00:00      0.00    0.00    0.00
  3                    CONDUIT    252.04     0  02:33      8.31    0.40    0.47
  4                    CONDUIT      0.00     0  00:00      0.00    0.00    0.00
  CC-Pump-1            PUMP         0.00     0  00:00              0.00
  CC-Pump-2            PUMP         0.00     0  00:00              0.00
  JK-Pump-1            PUMP       300.00     0  02:33              1.00
  JK-Pump-2            PUMP         0.00     0  00:00              0.00
  XR-Pump-1            PUMP        95.00     0  00:00              1.00
  XR-Pump-2            PUMP        95.00     0  00:25              1.00
  XR-Pump-3            PUMP        95.00     0  02:11              1.00
  XR-Pump-4            PUMP         0.00     0  00:00              0.00
  
  
  ***************************
  Flow Classification Summary
  ***************************
  
  -------------------------------------------------------------------------------------
                      Adjusted    ---------- Fraction of Time in Flow Class ---------- 
                       /Actual         Up    Down  Sub   Sup   Up    Down  Norm  Inlet 
  Conduit               Length    Dry  Dry   Dry   Crit  Crit  Crit  Crit  Ltd   Ctrl  
  -------------------------------------------------------------------------------------
  WS02003066WSF200        1.00   0.16  0.00  0.00  0.00  0.84  0.00  0.00  0.68  0.00
  WS02006287WS02006284    1.00   0.04  0.04  0.00  0.64  0.28  0.00  0.00  0.81  0.00
  WS02006284WS02006280    1.00   0.06  0.00  0.00  0.00  0.00  0.00  0.94  0.00  0.00
  WS02006280WS02006229    1.00   0.06  0.00  0.00  0.00  0.00  0.00  0.94  0.00  0.00
  WS02006229WS02006228    1.00   0.00  0.00  0.00  1.00  0.00  0.00  0.00  0.00  0.00
  WS02006256WS02006235    1.00   0.10  0.00  0.00  0.83  0.07  0.00  0.00  0.05  0.00
  WS02006253WS02006251    1.00   0.02  0.03  0.00  0.94  0.00  0.01  0.00  0.00  0.00
  WS02006252WS02006251    1.00   1.00  0.00  0.00  0.00  0.00  0.00  0.00  0.00  0.00
  WS02006251WS02006249    1.00   0.00  0.00  0.00  1.00  0.00  0.00  0.00  0.98  0.00
  WS02006249WS02006248    1.00   0.00  0.01  0.00  0.00  0.00  0.99  0.00  0.00  0.00
  WS02006248WS02006247    1.00   0.01  0.00  0.00  0.97  0.00  0.00  0.02  0.87  0.00
  WS02006247WS02006245    1.00   0.01  0.00  0.00  0.95  0.00  0.00  0.04  0.00  0.00
  WS02006245WS02006243    1.00   0.01  0.00  0.00  0.84  0.00  0.00  0.15  0.11  0.00
  WS02006243WS02006242    1.00   0.02  0.00  0.00  0.93  0.00  0.00  0.06  0.61  0.00
  WS02006242WS02006240    1.00   0.02  0.06  0.00  0.91  0.00  0.01  0.00  0.01  0.00
  WS02006240WS02006239    1.00   0.08  0.00  0.00  0.77  0.00  0.00  0.16  0.09  0.00
  WS02006239WS02006238    1.00   0.08  0.00  0.00  0.90  0.00  0.00  0.02  0.05  0.00
  WS02006238WS02006235    1.00   0.08  0.01  0.00  0.90  0.00  0.00  0.00  0.00  0.00
  WS02006235WS02006234    1.00   0.10  0.01  0.00  0.77  0.00  0.12  0.00  0.00  0.00
  WS02006234WS02006232    1.00   0.11  0.00  0.00  0.89  0.00  0.00  0.00  0.02  0.00
  WS02006232WS02006231    1.00   0.12  0.03  0.00  0.83  0.00  0.02  0.00  0.00  0.00
  WS02006231WS02006230    1.00   0.14  0.00  0.00  0.02  0.00  0.84  0.00  0.00  0.00
  WS02006230WS02006229    1.00   0.00  0.00  0.00  0.99  0.00  0.00  0.01  0.03  0.00
  WS02006228WS02006109    1.00   0.00  0.00  0.00  1.00  0.00  0.00  0.00  0.00  0.00
  WS02006116WS02004401    1.00   0.05  0.00  0.00  0.95  0.00  0.00  0.00  0.01  0.00
  WS02006115WS02006116    1.00   0.05  0.00  0.00  0.91  0.00  0.00  0.05  0.00  0.00
  WS02006113WS02006111    1.00   0.03  0.00  0.00  0.01  0.96  0.00  0.00  0.10  0.00
  WS02006112WS02006115    1.00   0.03  0.02  0.00  0.95  0.00  0.00  0.00  0.00  0.00
  WS02006111WS02006112    1.00   0.03  0.00  0.00  0.96  0.00  0.00  0.00  0.92  0.00
  WS02006110WS02006113    1.00   0.00  0.02  0.00  0.97  0.00  0.00  0.00  0.00  0.00
  WS02006109WS02006110    1.00   0.00  0.00  0.00  0.99  0.00  0.01  0.00  0.00  0.00
  WS02004411WS02004412    1.00   0.13  0.00  0.00  0.87  0.00  0.00  0.00  0.00  0.00
  WS02004401WS02004402    1.00   0.05  0.00  0.00  0.95  0.00  0.00  0.00  0.04  0.00
  WS02004413WS02003067    1.00   0.13  0.02  0.00  0.00  0.00  0.85  0.00  0.00  0.00
  WS02004412WS02004413    1.00   0.13  0.00  0.00  0.87  0.00  0.00  0.00  0.01  0.00
  WS02004410WS02004411    1.00   0.12  0.00  0.00  0.88  0.00  0.00  0.00  0.00  0.00
  WS02004409WS02004410    1.00   0.12  0.00  0.00  0.88  0.00  0.00  0.00  0.00  0.00
  WS02004407WS02004409    1.00   0.12  0.00  0.00  0.87  0.01  0.00  0.00  0.71  0.00
  WS02004406WS02004407    1.00   0.00  0.12  0.00  0.88  0.00  0.00  0.00  0.00  0.00
  WS02004405WS02004406    1.00   0.00  0.00  0.00  1.00  0.00  0.00  0.00  0.04  0.00
  WS02004404WS02004405    1.00   0.00  0.00  0.00  1.00  0.00  0.00  0.00  0.01  0.00
  WS02004403WS02004404    1.00   0.00  0.05  0.00  0.95  0.00  0.00  0.00  0.04  0.00
  WS02004402WS02004403    1.00   0.05  0.00  0.00  0.95  0.00  0.00  0.00  0.00  0.00
  WS02004139WS02001211    1.00   0.00  0.00  0.00  1.00  0.00  0.00  0.00  0.00  0.00
  WS02004138WS02004139    1.00   0.00  0.00  0.00  1.00  0.00  0.00  0.00  1.00  0.00
  WS02003067WS02003066    1.00   0.15  0.01  0.00  0.84  0.00  0.00  0.00  0.00  0.00
  WS02001213WS02003059    1.00   0.00  0.00  0.00  1.00  0.00  0.00  0.00  0.00  0.00
  WS02001212WS02001213    1.00   0.00  0.00  0.00  0.05  0.00  0.95  0.00  0.00  0.00
  WS02001211WS02001212    1.00   0.00  0.00  0.00  1.00  0.00  0.00  0.00  0.00  0.00
  WS02003072WS02003073    1.00   0.00  0.00  0.00  0.00  0.00  0.00  1.00  0.00  0.00
  WS02003069WS02003072    1.00   0.00  0.00  0.00  1.00  0.00  0.00  0.00  0.74  0.00
  WS02003060WS02003069    1.00   0.00  0.00  0.00  0.99  0.01  0.00  0.00  0.41  0.00
  WS02003059WS02003060    1.00   0.00  0.00  0.00  1.00  0.00  0.00  0.00  0.02  0.00
  HS02004901HS02004770    1.00   0.06  0.00  0.00  0.94  0.00  0.00  0.00  0.03  0.00
  HS02004876HS02004881    1.00   0.01  0.00  0.00  0.99  0.00  0.00  0.00  0.00  0.00
  HS02004870HS02004876    1.00   0.00  0.00  0.00  0.99  0.00  0.00  0.00  0.95  0.00
  HS02004842HS02004848    1.00   0.00  0.06  0.00  0.94  0.00  0.00  0.00  0.71  0.00
  HS02004837HS02004842    1.00   0.00  0.00  0.00  1.00  0.00  0.00  0.00  0.11  0.00
  HS02004830HS02004837    1.00   0.00  0.00  0.00  1.00  0.00  0.00  0.00  0.99  0.00
  HS02004824HS02004830    1.00   0.00  0.00  0.00  1.00  0.00  0.00  0.00  0.00  0.00
  HS02004817HS02004824    1.00   0.00  0.00  0.00  1.00  0.00  0.00  0.00  1.00  0.00
  HS02004770HS02004777    1.00   0.00  0.06  0.00  0.94  0.00  0.00  0.00  0.08  0.00
  HS02004799HS02004480    1.00   0.00  0.01  0.00  0.91  0.00  0.07  0.00  0.00  0.00
  HS02004792HS02004799    1.00   0.00  0.00  0.00  1.00  0.00  0.00  0.00  0.98  0.00
  HS02004788HS02004792    1.00   0.00  0.00  0.00  1.00  0.00  0.00  0.00  0.98  0.00
  HS02004785HS02004788    1.00   0.00  0.00  0.00  1.00  0.00  0.00  0.00  0.00  0.00
  HS02004777HS02004785    1.00   0.00  0.00  0.00  1.00  0.00  0.00  0.00  0.22  0.00
  HS02004480HS02004478    1.00   0.07  0.00  0.00  0.65  0.00  0.00  0.28  0.00  0.00
  HS02004479HS02004480    1.00   0.02  0.00  0.00  0.98  0.00  0.00  0.00  0.16  0.00
  HS02004862HS02004870    1.00   0.00  0.00  0.00  1.00  0.00  0.00  0.00  0.05  0.00
  HS02004848HS02004852    1.00   0.06  0.00  0.00  0.94  0.00  0.00  0.00  0.69  0.00
  HS02004856HS02004862    1.00   0.00  0.12  0.00  0.88  0.00  0.00  0.00  0.73  0.00
  HS02004852HS02004856    1.00   0.06  0.02  0.00  0.92  0.00  0.00  0.00  0.82  0.00
  HS02004802HS02004478    1.00   0.06  0.02  0.00  0.92  0.00  0.00  0.00  0.00  0.00
  HS02004478WS02006287    1.00   0.08  0.00  0.00  0.92  0.00  0.00  0.00  0.81  0.00
  HS02004817HS02004807    1.00   0.00  0.06  0.00  0.94  0.00  0.00  0.00  0.00  0.00
  HS02004807HS02004802    1.00   0.06  0.00  0.00  0.94  0.00  0.00  0.00  0.01  0.00
  YS02001759YS02001757    1.00   0.00  0.00  0.00  1.00  0.00  0.00  0.00  0.17  0.00
  YS02001762YS02001759    1.00   0.00  0.00  0.00  1.00  0.00  0.00  0.00  0.05  0.00
  YS02001765YS02001762    1.00   0.00  0.00  0.00  1.00  0.00  0.00  0.00  0.23  0.00
  YS02001770YS02001767    1.00   0.00  0.00  0.00  1.00  0.00  0.00  0.00  0.00  0.00
  YS02001774YS02001770    1.00   0.00  0.08  0.00  0.92  0.00  0.00  0.00  0.07  0.00
  YS02001779YS02001774    1.00   0.00  0.00  0.00  1.00  0.00  0.00  0.00  0.28  0.00
  YS02001649YS02001757    1.00   0.00  0.00  0.00  1.00  0.00  0.00  0.00  0.19  0.00
  YS02001767YS02001765    1.00   0.00  0.00  0.00  1.00  0.00  0.00  0.00  0.01  0.00
  YS02006561YS02001783    1.00   0.12  0.00  0.00  0.00  0.88  0.00  0.00  0.72  0.00
  YS02001783YS02001784    1.00   0.00  0.12  0.00  0.88  0.00  0.00  0.00  0.10  0.00
  YS02001784YS02001785    1.00   0.00  0.00  0.00  1.00  0.00  0.00  0.00  0.26  0.00
  YS02001788YS02001790    1.00   0.00  0.00  0.00  0.13  0.87  0.00  0.00  0.99  0.00
  YS02001790YS02001791    1.00   0.00  0.00  0.00  0.01  0.99  0.00  0.00  0.36  0.00
  YS02001791YS02001793    1.00   0.00  0.00  0.00  0.19  0.81  0.00  0.00  0.25  0.00
  YS02001910YS02001907    1.00   0.00  0.00  0.00  0.99  0.00  0.00  0.01  0.13  0.00
  YS02001786YS02001788    1.00   0.00  0.00  0.00  0.14  0.86  0.00  0.00  0.00  0.00
  YS02001915YS02001910    1.00   0.00  0.00  0.00  0.99  0.01  0.00  0.00  0.25  0.00
  YS02001918YS02001915    1.00   0.00  0.00  0.00  0.99  0.01  0.00  0.00  0.80  0.00
  YS02001923YS02001920    1.00   0.00  0.00  0.00  1.00  0.00  0.00  0.00  1.00  0.00
  YS02001926YS02001923    1.00   0.00  0.03  0.00  0.00  0.00  0.97  0.00  0.00  0.00
  YS02001929YS02001926    1.00   0.00  0.06  0.00  0.94  0.00  0.00  0.00  0.86  0.00
  YS02001920YS02001918    1.00   0.00  0.00  0.00  1.00  0.00  0.00  0.00  0.00  0.00
  YS02001629YS02163301    1.00   0.10  0.01  0.00  0.89  0.00  0.00  0.00  0.00  0.00
  YS02001619YS02001622    1.00   0.06  0.00  0.00  0.94  0.00  0.00  0.00  0.00  0.00
  YS02001622YS02001625    1.00   0.06  0.00  0.00  0.94  0.00  0.00  0.00  0.14  0.00
  YS02001625YS02001629    1.00   0.06  0.07  0.00  0.84  0.00  0.03  0.00  0.00  0.00
  YS02163301YS02001633    1.00   0.00  0.10  0.00  0.90  0.00  0.00  0.00  0.00  0.00
  YS02163601YS02164001    1.00   0.00  0.03  0.00  0.96  0.00  0.00  0.00  0.00  0.00
  YS02164001YS02001641    1.00   0.00  0.03  0.00  0.96  0.00  0.00  0.00  0.07  0.00
  YS02001641YS02001644    1.00   0.00  0.00  0.00  1.00  0.00  0.00  0.00  0.00  0.00
  YS02001647YS02001649    1.00   0.00  0.12  0.00  0.88  0.00  0.00  0.00  0.01  0.00
  YS02006553YS02006556    1.00   0.01  0.00  0.00  0.99  0.00  0.00  0.00  0.03  0.00
  YS02006556YS02006558    1.00   0.00  0.00  0.00  1.00  0.00  0.00  0.00  0.00  0.00
  YSB6556YSB1171          1.00   0.02  0.04  0.00  0.95  0.00  0.00  0.00  0.00  0.00
  YS02001907YS02006553    1.00   0.00  0.01  0.00  0.99  0.00  0.00  0.00  0.00  0.00
  YS02006558YS02006561    1.00   0.12  0.00  0.00  0.00  0.88  0.00  0.00  0.71  0.00
  YS02001633YS02163601    1.00   0.00  0.00  0.00  1.00  0.00  0.00  0.00  0.20  0.00
  YS02001644YS02001647    1.00   0.00  0.12  0.00  0.88  0.00  0.00  0.00  0.00  0.00
  YS02001745YS02001748    1.00   0.00  0.00  0.00  0.61  0.05  0.00  0.34  0.24  0.00
  YS02001748YS02001751    1.00   0.00  0.00  0.00  0.94  0.06  0.00  0.00  0.28  0.00
  YS02001751YS02001754    1.00   0.00  0.00  0.00  0.86  0.00  0.00  0.13  0.03  0.00
  YS02001754YS02001757    1.00   0.00  0.00  0.00  1.00  0.00  0.00  0.00  0.28  0.00
  YS02001882YS02001884    1.00   0.09  0.01  0.00  0.90  0.00  0.00  0.00  0.00  0.00
  YS02001884YS02001887    1.00   0.03  0.02  0.00  0.95  0.00  0.00  0.00  0.00  0.00
  YS02001890YS02001895    1.00   0.00  0.11  0.00  0.89  0.00  0.00  0.00  0.00  0.00
  YS02001895YS02001898    1.00   0.11  0.00  0.00  0.87  0.00  0.02  0.00  0.00  0.00
  YS02001898YS02001901    1.00   0.10  0.01  0.00  0.89  0.00  0.00  0.00  0.02  0.00
  YS02001901YS02001904    1.00   0.10  0.00  0.00  0.90  0.00  0.00  0.00  0.00  0.00
  YS02001904YS02001907    1.00   0.00  0.10  0.00  0.90  0.00  0.00  0.00  0.00  0.00
  YS02001887YS02001890    1.00   0.00  0.00  0.00  0.99  0.00  0.01  0.00  0.00  0.00
  YS02001652YS02001649    1.00   0.00  0.00  0.00  1.00  0.00  0.00  0.00  0.27  0.00
  YS02001655YS02001652    1.00   0.00  0.00  0.00  0.87  0.00  0.00  0.13  0.03  0.00
  YS02001658YS02001655    1.00   0.00  0.08  0.00  0.85  0.06  0.00  0.00  0.20  0.00
  YS02001661YS02001658    1.00   0.08  0.00  0.00  0.61  0.30  0.00  0.00  0.34  0.00
  YS02001664YS02001661    1.00   0.06  0.00  0.00  0.94  0.00  0.00  0.00  0.86  0.00
  YSB1154YSB6556          1.00   0.05  0.00  0.00  0.95  0.00  0.00  0.00  0.02  0.00
  YSB1174YSB1171          1.00   0.02  0.02  0.00  0.96  0.00  0.00  0.00  0.00  0.00
  YSB1171HS02004479       1.00   0.02  0.00  0.00  0.98  0.00  0.00  0.01  0.13  0.00
  HS02004881HS02006253    1.00   0.02  0.00  0.00  0.00  0.00  0.00  0.98  0.00  0.00
  YS02001793JiankangQianchi    1.00   0.00  0.00  0.00  1.00  0.00  0.00  0.00  0.72  0.00
  YS02001757CaochengTiaoxuchi    1.00   0.00  0.16  0.00  0.84  0.00  0.00  0.00  0.00  0.00
  WSF200WS02003060        1.00   0.00  0.16  0.00  0.84  0.00  0.00  0.00  0.68  0.00
  1                       1.00   0.00  0.00  0.00  0.00  1.00  0.00  0.00  0.18  0.00
  2                       1.00   1.00  0.00  0.00  0.00  0.00  0.00  0.00  0.00  0.00
  3                       1.00   0.42  0.00  0.00  0.00  0.58  0.00  0.00  0.01  0.00
  4                       1.00   1.00  0.00  0.00  0.00  0.00  0.00  0.00  0.00  0.00
  
  
  *************************
  Conduit Surcharge Summary
  *************************
  
  ----------------------------------------------------------------------------
                                                           Hours        Hours 
                         --------- Hours Full --------   Above Full   Capacity
  Conduit                Both Ends  Upstream  Dnstream   Normal Flow   Limited
  ----------------------------------------------------------------------------
  WS02006256WS02006235        1.25      1.28      5.13      1.61         0.01
  WS02006235WS02006234        0.01      0.01      0.01      1.34         0.01
  WS02006231WS02006230        0.01      0.01      0.01      1.62         0.01
  WS02006230WS02006229        0.01      0.01      0.01      2.91         0.01
  WS02006228WS02006109        0.01      0.01      0.01      0.06         0.01
  WS02004404WS02004405        0.01      0.01      0.01      1.64         0.01
  WS02003072WS02003073        0.01      0.01      0.01      0.35         0.01
  YS02001759YS02001757        3.95      3.95      4.46      0.01         0.01
  YS02001762YS02001759        3.77      3.77      3.95      0.01         0.01
  YS02001765YS02001762        3.49      3.49      3.77      0.01         0.01
  YS02001770YS02001767        3.24      3.25      3.28      0.01         0.04
  YS02001774YS02001770        3.07      3.07      3.65      0.01         0.01
  YS02001779YS02001774        1.91      1.91      3.65      0.01         0.01
  YS02001649YS02001757        3.82      3.82      4.46      0.01         0.01
  YS02001767YS02001765        3.28      3.28      3.49      0.01         0.01
  YS02001629YS02163301        2.92      2.92      3.13      0.01         0.01
  YS02001622YS02001625        0.01      0.01      2.55      0.01         0.01
  YS02001625YS02001629        0.01      0.01      2.55      0.01         0.01
  YS02163301YS02001633        3.13      3.13      3.49      0.01         0.01
  YS02163601YS02164001        3.45      3.45      3.78      0.01         0.01
  YS02164001YS02001641        3.45      3.45      3.57      0.01         0.01
  YS02001641YS02001644        3.57      3.57      3.59      0.01         0.02
  YS02001647YS02001649        2.50      2.50      3.82      0.01         0.01
  YS02001633YS02163601        3.37      3.37      3.78      0.01         0.01
  YS02001644YS02001647        2.50      2.50      3.59      0.01         0.01
  YS02001751YS02001754        0.01      0.01      2.13      0.01         0.01
  YS02001754YS02001757        2.52      2.52      4.46      0.01         0.01
  YS02001652YS02001649        2.60      2.60      3.82      0.01         0.01
  YS02001655YS02001652        0.27      0.27      2.39      0.01         0.01
  YS02001658YS02001655        0.01      0.01      0.27      0.01         0.01
  YS02001793JiankangQianchi        0.01      0.01      7.82      0.01         0.01
  YS02001757CaochengTiaoxuchi        0.01      0.01      4.46      0.01         0.01
  
  
  ***************
  Pumping Summary
  ***************
  
  ---------------------------------------------------------------------------------------------------------
                                                  Min       Avg       Max     Total     Power    % Time Off
                        Percent   Number of      Flow      Flow      Flow    Volume     Usage    Pump Curve
  Pump                 Utilized   Start-Ups       LPS       LPS       LPS  10^6 ltr     Kw-hr    Low   High
  ---------------------------------------------------------------------------------------------------------
  CC-Pump-1                0.00           0      0.00      0.00      0.00     0.000      0.00    0.0    0.0
  CC-Pump-2                0.00           0      0.00      0.00      0.00     0.000      0.00    0.0    0.0
  JK-Pump-1               20.81          13      0.00    300.00    300.00     1.761     15.71    0.0    0.0
  JK-Pump-2                0.00           0      0.00      0.00      0.00     0.000      0.00    0.0    0.0
  XR-Pump-1              100.00           1      0.00     95.00     95.00     2.679     20.46    0.0    0.0
  XR-Pump-2               94.70           1      0.00     95.00     95.00     2.537     19.03    0.0    0.0
  XR-Pump-3               37.45           6      0.00     95.00     95.00     1.003      7.54    0.0    0.0
  XR-Pump-4                0.00           0      0.00      0.00      0.00     0.000      0.00    0.0    0.0
  

  Analysis begun on:  Wed Jan  5 21:41:58 2022
  Analysis ended on:  Wed Jan  5 21:41:59 2022
  Total elapsed time: 00:00:01