
  EPA STORM WATER MANAGEMENT MODEL - VERSION 5.1 (Build 5.3.0.dev0)
  --------------------------------------------------------------

  WARNING 04: minimum elevation drop used for Conduit WS02004404WS02004405
  WARNING 03: negative offset ignored for Link YS02001904YS02001907
  
  *********************************************************
  NOTE: The summary statistics displayed in this report are
  based on results found at every computational time step,  
  not just on results from each reporting time step.
  *********************************************************
  
  ****************
  Analysis Options
  ****************
  Flow Units ............... LPS
  Process Models:
    Rainfall/Runoff ........ YES
    RDII ................... NO
    Snowmelt ............... NO
    Groundwater ............ NO
    Flow Routing ........... YES
    Ponding Allowed ........ NO
    Water Quality .......... NO
  Infiltration Method ...... HORTON
  Flow Routing Method ...... DYNWAVE
  Surcharge Method ......... EXTRAN
  Starting Date ............ 08/28/2015 08:00:00
  Ending Date .............. 08/28/2015 15:50:00
  Antecedent Dry Days ...... 8.0
  Report Time Step ......... 00:01:00
  Wet Time Step ............ 00:01:00
  Dry Time Step ............ 00:01:00
  Routing Time Step ........ 5.00 sec
  Variable Time Step ....... YES
  Maximum Trials ........... 8
  Number of Threads ........ 4
  Head Tolerance ........... 0.001500 m
  
  
  **************************        Volume         Depth
  Runoff Quantity Continuity     hectare-m            mm
  **************************     ---------       -------
  Total Precipitation ......         1.913         4.188
  Evaporation Loss .........         0.000         0.000
  Infiltration Loss ........         0.472         1.033
  Surface Runoff ...........         0.641         1.403
  Final Storage ............         0.800         1.752
  Continuity Error (%) .....        -0.017
  
  
  **************************        Volume        Volume
  Flow Routing Continuity        hectare-m      10^6 ltr
  **************************     ---------     ---------
  Dry Weather Inflow .......         0.616         6.165
  Wet Weather Inflow .......         0.641         6.406
  Groundwater Inflow .......         0.000         0.000
  RDII Inflow ..............         0.000         0.000
  External Inflow ..........         0.102         1.024
  External Outflow .........         0.934         9.337
  Flooding Loss ............         0.000         0.000
  Evaporation Loss .........         0.000         0.000
  Exfiltration Loss ........         0.000         0.000
  Initial Stored Volume ....         0.076         0.761
  Final Stored Volume ......         0.498         4.977
  Continuity Error (%) .....         0.287
  
  
  *************************
  Highest Continuity Errors
  *************************
  Node HS02004842 (36.86%)
  Node YS02001884 (31.01%)
  Node YS02001774 (30.22%)
  Node YS02001625 (11.18%)
  Node YSB1171 (10.57%)
  
  
  ***************************
  Time-Step Critical Elements
  ***************************
  Link 3 (58.71%)
  Link WS02006280WS02006229 (25.01%)
  Link WS02006238WS02006235 (5.06%)
  
  
  ********************************
  Highest Flow Instability Indexes
  ********************************
  Link WS02006113WS02006111 (21)
  Link YS02001759YS02001757 (6)
  Link YS02001629YS02163301 (6)
  Link YS02001767YS02001765 (6)
  Link YS02001762YS02001759 (6)
  
  
  *************************
  Routing Time Step Summary
  *************************
  Minimum Time Step           :     0.50 sec
  Average Time Step           :     2.09 sec
  Maximum Time Step           :     5.00 sec
  Percent in Steady State     :    -0.00
  Average Iterations per Step :     2.12
  Percent Not Converging      :     0.33
  
  
  ***************************
  Subcatchment Runoff Summary
  ***************************
  
  ------------------------------------------------------------------------------------------------------------------------------
                            Total      Total      Total      Total     Imperv       Perv      Total       Total     Peak  Runoff
                           Precip      Runon       Evap      Infil     Runoff     Runoff     Runoff      Runoff   Runoff   Coeff
  Subcatchment                 mm         mm         mm         mm         mm         mm         mm    10^6 ltr      LPS
  ------------------------------------------------------------------------------------------------------------------------------
  sub0                       4.19       0.00       0.00       0.29       2.63       0.00       2.63        0.00     0.86   0.628
  sub1                       4.19       0.00       0.00       0.46       2.47       0.00       2.47        0.02     4.27   0.591
  sub2                       4.19       0.00       0.00       1.55       1.74       0.00       1.74        0.02     3.73   0.414
  sub3                       4.19       0.00       0.00       1.55       1.70       0.00       1.70        0.04     7.55   0.407
  sub4                       4.19       0.00       0.00       0.46       2.35       0.00       2.35        0.05     8.35   0.561
  sub5                       4.19       0.00       0.00       0.29       2.59       0.00       2.59        0.03     7.60   0.617
  sub7                       4.19       0.00       0.00       0.38       2.56       0.00       2.56        0.01     2.74   0.611
  sub8                       4.19       0.00       0.00       0.38       2.55       0.00       2.55        0.02     4.79   0.609
  sub9                       4.19       0.00       0.00       0.38       2.55       0.00       2.55        0.01     3.55   0.608
  sub10                      4.19       0.00       0.00       0.34       2.56       0.00       2.56        0.03     7.61   0.612
  sub11                      4.19       0.00       0.00       0.34       2.58       0.00       2.58        0.03     9.04   0.616
  sub12                      4.19       0.00       0.00       0.54       2.46       0.00       2.46        0.02     7.83   0.586
  sub14                      4.19       0.00       0.00       0.38       2.54       0.00       2.54        0.02     6.92   0.608
  sub15                      4.19       0.00       0.00       1.26       1.95       0.00       1.95        0.03     9.37   0.467
  sub16                      4.19       0.00       0.00       1.38       1.89       0.00       1.89        0.02     6.84   0.451
  sub17                      4.19       0.00       0.00       1.34       1.91       0.00       1.91        0.02     5.50   0.457
  sub22                      4.19       0.00       0.00       1.80       1.60       0.00       1.60        0.10    31.00   0.382
  sub23                      4.19       0.00       0.00       1.55       1.77       0.00       1.77        0.08    26.47   0.422
  sub60                      4.19       0.00       0.00       0.50       1.53       0.00       1.53        0.46    38.61   0.365
  sub61                      4.19       0.00       0.00       0.71       1.69       0.00       1.69        0.52    49.57   0.403
  sub62                      4.19       0.00       0.00       0.34       1.79       0.00       1.79        0.55    50.32   0.428
  sub63                      4.19       0.00       0.00       1.21       1.52       0.00       1.52        0.46    46.71   0.363
  sub64                      4.19       0.00       0.00       0.63       1.46       0.00       1.46        0.44    36.61   0.348
  sub65                      4.19       0.00       0.00       0.54       1.47       0.00       1.47        0.45    37.08   0.351
  sub66                      4.19       0.00       0.00       1.21       1.28       0.00       1.28        0.39    33.80   0.307
  sub67                      4.19       0.00       0.00       0.34       2.02       0.00       2.02        0.62    66.03   0.483
  sub68                      4.19       0.00       0.00       0.59       1.81       0.00       1.81        0.56    55.14   0.432
  sub69                      4.19       0.00       0.00       0.63       2.01       0.00       2.01        0.47    56.20   0.479
  sub70                      4.19       2.05       0.00       2.12       2.30       0.00       2.30        0.53    40.91   0.370
  sub71                      4.19       0.00       0.00       0.34       1.69       0.00       1.69        0.40    34.83   0.405
  sub72                      4.19       0.00       0.00       0.29       1.12       0.00       1.12        0.23    15.77   0.268
  sub73                      4.19       2.24       0.00       2.19       2.24       0.00       2.24        0.53    34.82   0.348
  sub74                      4.19       0.00       0.00       3.14       0.61       0.00       0.61        0.24    31.66   0.146
  
  
  ******************
  Node Depth Summary
  ******************
  
  ---------------------------------------------------------------------------------
                                 Average  Maximum  Maximum  Time of Max    Reported
                                   Depth    Depth      HGL   Occurrence   Max Depth
  Node                 Type       Meters   Meters   Meters  days hr:min      Meters
  ---------------------------------------------------------------------------------
  WS02001211           JUNCTION     0.65     0.69     5.53     0  02:53        0.69
  WS02001212           JUNCTION     0.37     0.40     5.47     0  02:52        0.40
  WS02001213           JUNCTION     0.56     0.63     5.39     0  02:51        0.63
  WS02003069           JUNCTION     0.33     0.42     5.00     0  02:49        0.42
  WS02003072           JUNCTION     0.40     0.49     4.86     0  02:50        0.49
  WS02003073           JUNCTION     0.23     0.29     4.36     0  02:51        0.29
  WS02003060           JUNCTION     0.30     0.37     5.30     0  02:49        0.37
  WS02003066           JUNCTION     0.13     0.21     5.77     0  02:48        0.21
  WS02003059           JUNCTION     0.62     0.68     5.37     0  02:50        0.68
  WS02003067           JUNCTION     0.37     0.54     5.86     0  02:48        0.54
  WS02004401           JUNCTION     0.42     0.61     6.61     0  02:44        0.61
  WS02004402           JUNCTION     0.46     0.64     6.60     0  02:44        0.64
  WS02004403           JUNCTION     0.48     0.67     6.60     0  02:44        0.67
  WS02004404           JUNCTION     0.56     0.75     6.60     0  02:44        0.75
  WS02004406           JUNCTION     0.58     0.76     6.59     0  02:45        0.76
  WS02004409           JUNCTION     0.24     0.41     6.18     0  02:46        0.41
  WS02004410           JUNCTION     0.26     0.44     6.16     0  02:46        0.44
  WS02004411           JUNCTION     0.29     0.46     6.14     0  02:47        0.46
  WS02004412           JUNCTION     0.31     0.48     6.12     0  02:48        0.48
  WS02004413           JUNCTION     0.46     0.65     6.12     0  02:47        0.65
  WS02004405           JUNCTION     0.56     0.75     6.60     0  02:44        0.75
  WS02006109           JUNCTION     0.48     0.69     7.30     0  02:41        0.69
  WS02006110           JUNCTION     0.50     0.69     7.28     0  02:42        0.69
  WS02006111           JUNCTION     0.11     0.20     6.90     0  02:42        0.20
  WS02006112           JUNCTION     0.56     0.77     6.65     0  02:43        0.76
  WS02006113           JUNCTION     0.16     0.30     7.19     0  02:42        0.30
  WS02006115           JUNCTION     0.31     0.49     6.63     0  02:43        0.49
  WS02006116           JUNCTION     0.39     0.57     6.61     0  02:43        0.57
  WS02006230           JUNCTION     0.37     0.60     7.34     0  02:41        0.59
  WS02006231           JUNCTION     0.20     0.35     7.47     0  02:41        0.35
  WS02006232           JUNCTION     0.29     0.47     7.51     0  02:40        0.47
  WS02006234           JUNCTION     0.20     0.37     7.52     0  02:40        0.36
  WS02006235           JUNCTION     0.23     0.39     7.56     0  02:40        0.39
  WS02006238           JUNCTION     0.25     0.41     7.56     0  02:40        0.41
  WS02006240           JUNCTION     0.13     0.27     7.56     0  02:41        0.27
  WS02006242           JUNCTION     0.15     0.29     7.56     0  02:41        0.29
  WS02006243           JUNCTION     0.06     0.14     7.56     0  02:42        0.14
  WS02006245           JUNCTION     0.05     0.13     7.61     0  02:25        0.13
  WS02006247           JUNCTION     0.06     0.15     7.65     0  02:25        0.15
  WS02006248           JUNCTION     0.04     0.11     7.69     0  02:24        0.11
  WS02006249           JUNCTION     0.07     0.15     7.75     0  02:24        0.15
  WS02006239           JUNCTION     0.19     0.35     7.56     0  02:40        0.35
  WS02006251           JUNCTION     0.05     0.12     7.79     0  02:22        0.12
  WS02006252           JUNCTION     0.00     0.00     8.24     0  00:00        0.00
  WS02006253           JUNCTION     0.09     0.18     7.82     0  02:22        0.18
  WS02006256           JUNCTION     0.76     1.16     8.09     0  02:31        1.14
  WS02004138           JUNCTION     0.15     0.17     7.42     0  07:39        0.17
  WS02004407           JUNCTION     0.11     0.19     6.51     0  02:45        0.19
  WS02006228           JUNCTION     0.45     0.67     7.32     0  02:41        0.67
  WS02006229           JUNCTION     0.41     0.63     7.33     0  02:41        0.63
  WS02006280           JUNCTION     0.05     0.11     8.38     0  02:22        0.11
  WS02006284           JUNCTION     0.34     0.44     8.83     0  02:22        0.44
  WS02006287           JUNCTION     0.07     0.16     9.12     0  02:22        0.16
  WSF200               JUNCTION     0.10     0.18     5.41     0  02:48        0.18
  HS02004901           JUNCTION     0.10     0.19    10.01     0  02:20        0.19
  HS02004881           JUNCTION     0.01     0.02     9.05     0  02:21        0.02
  HS02004876           JUNCTION     0.03     0.09     9.12     0  02:21        0.09
  HS02004870           JUNCTION     0.01     0.03     9.32     0  02:22        0.03
  HS02004862           JUNCTION     0.01     0.03     9.42     0  02:23        0.03
  HS02004856           JUNCTION     0.07     0.09     9.52     0  02:22        0.09
  HS02004852           JUNCTION     0.01     0.02     9.53     0  02:23        0.02
  HS02004848           JUNCTION     0.01     0.02     9.62     0  02:20        0.02
  HS02004842           JUNCTION     0.33     0.35     9.62     0  02:19        0.35
  HS02004837           JUNCTION     0.02     0.04     9.62     0  02:20        0.04
  HS02004830           JUNCTION     0.04     0.05     9.52     0  02:20        0.05
  HS02004824           JUNCTION     0.02     0.03     9.43     0  02:23        0.03
  HS02004817           JUNCTION     0.42     0.49     9.34     0  02:22        0.49
  HS02004807           JUNCTION     0.11     0.16     9.33     0  02:22        0.16
  HS02004802           JUNCTION     0.14     0.20     9.33     0  02:22        0.20
  HS02004799           JUNCTION     0.10     0.20     9.41     0  02:21        0.20
  HS02004792           JUNCTION     0.02     0.07     9.59     0  02:20        0.07
  HS02004788           JUNCTION     0.02     0.05     9.95     0  02:21        0.05
  HS02004785           JUNCTION     0.03     0.10    10.00     0  02:21        0.10
  HS02004777           JUNCTION     0.13     0.21    10.01     0  02:21        0.21
  HS02004770           JUNCTION     0.10     0.18    10.01     0  02:21        0.18
  HS02004480           JUNCTION     0.06     0.15     9.39     0  02:21        0.15
  HS02004479           JUNCTION     0.10     0.19     9.39     0  02:21        0.19
  HS02004478           JUNCTION     0.05     0.09     9.32     0  02:22        0.09
  YS02001745           JUNCTION     0.12     0.38     7.90     0  07:50        0.38
  YS02001748           JUNCTION     0.35     0.82     7.90     0  07:50        0.82
  YS02001751           JUNCTION     0.52     1.02     7.90     0  07:50        1.02
  YS02001754           JUNCTION     0.75     1.29     7.90     0  07:50        1.29
  YS02001762           JUNCTION     0.94     1.50     7.90     0  07:50        1.50
  YS02001765           JUNCTION     0.89     1.45     7.90     0  07:50        1.45
  YS02001767           JUNCTION     0.86     1.41     7.90     0  07:50        1.41
  YS02001770           JUNCTION     0.85     1.40     7.90     0  07:50        1.40
  YS02001774           JUNCTION     0.92     1.48     7.90     0  07:50        1.48
  YS02001779           JUNCTION     0.68     1.21     7.90     0  07:50        1.21
  YS02001882           JUNCTION     0.23     0.33     7.04     0  02:54        0.33
  YS02001884           JUNCTION     0.32     0.43     7.04     0  02:55        0.43
  YS02001759           JUNCTION     0.97     1.53     7.90     0  07:50        1.53
  YS02001887           JUNCTION     0.39     0.51     7.04     0  02:55        0.51
  YS02001890           JUNCTION     0.43     0.54     7.04     0  02:54        0.54
  YS02001898           JUNCTION     0.20     0.29     7.03     0  02:56        0.29
  YS02001901           JUNCTION     0.31     0.42     7.03     0  02:56        0.42
  YS02001904           JUNCTION     0.29     0.40     7.03     0  02:55        0.40
  YS02001907           JUNCTION     0.62     0.74     7.03     0  02:56        0.74
  YS02001910           JUNCTION     0.41     0.52     7.03     0  02:56        0.52
  YS02001915           JUNCTION     0.22     0.31     7.03     0  02:57        0.31
  YS02001918           JUNCTION     0.06     0.07     7.14     0  03:04        0.07
  YS02001619           JUNCTION     0.48     0.97     7.90     0  07:50        0.97
  YS02001629           JUNCTION     0.80     1.35     7.90     0  07:50        1.35
  YS02001641           JUNCTION     0.91     1.46     7.90     0  07:50        1.46
  YS02001644           JUNCTION     0.91     1.47     7.90     0  07:50        1.47
  YS02001652           JUNCTION     0.76     1.30     7.90     0  07:50        1.30
  YS02001655           JUNCTION     0.54     1.05     7.90     0  07:50        1.05
  YS02001920           JUNCTION     0.15     0.17     7.17     0  03:03        0.17
  YS02001923           JUNCTION     0.05     0.06     7.32     0  03:02        0.06
  YS02001926           JUNCTION     0.11     0.13     7.58     0  03:02        0.13
  YS02001929           JUNCTION     0.05     0.06     7.76     0  03:01        0.06
  YS02001658           JUNCTION     0.31     0.76     7.90     0  07:50        0.76
  YS02001661           JUNCTION     0.20     0.49     7.90     0  07:50        0.49
  YS02001664           JUNCTION     0.06     0.08     8.01     0  02:46        0.08
  YS02001622           JUNCTION     0.50     0.99     7.90     0  07:50        0.99
  YS02001633           JUNCTION     0.89     1.44     7.90     0  07:50        1.44
  YS02001649           JUNCTION     0.95     1.51     7.90     0  07:50        1.51
  YS02001757           JUNCTION     1.07     1.64     7.90     0  07:50        1.64
  YS02001895           JUNCTION     0.20     0.29     7.04     0  02:55        0.29
  YS02001625           JUNCTION     0.76     1.29     7.90     0  07:50        1.29
  YS02163301           JUNCTION     0.83     1.38     7.90     0  07:50        1.38
  YS02163601           JUNCTION     0.95     1.50     7.90     0  07:50        1.50
  YS02164001           JUNCTION     0.89     1.44     7.90     0  07:50        1.44
  YS02001647           JUNCTION     0.75     1.29     7.90     0  07:50        1.29
  YSB1154              JUNCTION     0.23     0.33     9.39     0  02:21        0.33
  YSB6556              JUNCTION     0.13     0.22     9.39     0  02:21        0.22
  YSB1174              JUNCTION     0.18     0.28     9.39     0  02:21        0.28
  YSB1171              JUNCTION     0.38     0.49     9.39     0  02:21        0.49
  YS02006553           JUNCTION     0.62     0.74     7.03     0  02:56        0.74
  YS02006561           JUNCTION     0.11     0.16     6.82     0  02:57        0.16
  YS02006556           JUNCTION     0.59     0.71     7.03     0  02:57        0.71
  YS02006558           JUNCTION     0.64     0.76     7.03     0  02:57        0.76
  YS02001783           JUNCTION     0.18     0.28     6.42     0  02:57        0.28
  YS02001784           JUNCTION     0.22     0.31     6.38     0  02:56        0.31
  YS02001786           JUNCTION     0.19     0.27     6.30     0  02:57        0.27
  YS02001788           JUNCTION     0.13     0.19     6.17     0  02:57        0.19
  YS02001790           JUNCTION     0.16     0.24     5.88     0  02:58        0.24
  YS02001791           JUNCTION     0.11     0.16     5.63     0  02:58        0.16
  YS02001793           JUNCTION     0.14     0.60     5.44     0  03:09        0.60
  WS02004139           JUNCTION     0.59     0.64     5.55     0  02:53        0.64
  WSC                  OUTFALL      0.23     0.29     0.96     0  02:51        0.29
  3                    OUTFALL      0.06     0.13     6.13     0  02:31        0.12
  4                    OUTFALL      0.00     0.00     7.00     0  00:00        0.00
  5                    OUTFALL      0.00     0.00     5.00     0  00:00        0.00
  JK-storage           STORAGE      3.82     4.58     5.38     0  03:09        4.57
  CC-storage           STORAGE      0.39     0.90     7.90     0  07:50        0.90
  XR-storage           STORAGE      6.61     7.00     5.00     0  03:20        7.00
  
  
  *******************
  Node Inflow Summary
  *******************
  
  -------------------------------------------------------------------------------------------------
                                  Maximum  Maximum                  Lateral       Total        Flow
                                  Lateral    Total  Time of Max      Inflow      Inflow     Balance
                                   Inflow   Inflow   Occurrence      Volume      Volume       Error
  Node                 Type           LPS      LPS  days hr:min    10^6 ltr    10^6 ltr     Percent
  -------------------------------------------------------------------------------------------------
  WS02001211           JUNCTION      7.35   294.59     0  07:40       0.207        6.39       0.597
  WS02001212           JUNCTION      0.00   293.57     0  02:59           0        6.35       0.314
  WS02001213           JUNCTION      0.00   294.05     0  02:58           0        6.33       0.331
  WS02003069           JUNCTION      0.32   526.06     0  02:49     0.00902        8.47       0.242
  WS02003072           JUNCTION      0.00   525.97     0  02:50           0        8.45       0.319
  WS02003073           JUNCTION      1.82   527.82     0  02:50      0.0514        8.47       0.344
  WS02003060           JUNCTION     16.53   525.57     0  02:48       0.466        8.48       0.237
  WS02003066           JUNCTION      0.00   221.25     0  02:48           0        1.74       0.111
  WS02003059           JUNCTION      0.00   295.01     0  02:58           0        6.32       0.590
  WS02003067           JUNCTION      0.00   221.27     0  02:47           0        1.75       0.291
  WS02004401           JUNCTION      0.00   244.11     0  02:43           0        1.87       0.635
  WS02004402           JUNCTION      0.00   241.66     0  02:43           0        1.86       0.642
  WS02004403           JUNCTION      0.00   239.27     0  02:44           0        1.85       0.618
  WS02004404           JUNCTION      0.16   237.89     0  02:44     0.00457        1.84       0.514
  WS02004406           JUNCTION      0.00   236.20     0  02:44           0        1.82       1.252
  WS02004409           JUNCTION      0.00   234.62     0  02:45           0        1.79       0.267
  WS02004410           JUNCTION      0.00   231.58     0  02:45           0        1.79       0.378
  WS02004411           JUNCTION      0.00   228.37     0  02:46           0        1.78       0.444
  WS02004412           JUNCTION      0.00   225.70     0  02:46           0        1.77       0.559
  WS02004413           JUNCTION      0.00   223.25     0  02:47           0        1.76       0.950
  WS02004405           JUNCTION      0.04   237.19     0  02:44     0.00107        1.83       0.763
  WS02006109           JUNCTION      1.23   253.47     0  02:41      0.0347        1.91       0.575
  WS02006110           JUNCTION      0.00   253.05     0  02:41           0         1.9       0.537
  WS02006111           JUNCTION      0.00   254.19     0  02:42           0        1.89       0.053
  WS02006112           JUNCTION      5.50   254.78     0  02:42      0.0164         1.9       0.843
  WS02006113           JUNCTION      0.00   252.69     0  02:42           0        1.89       0.127
  WS02006115           JUNCTION      0.00   251.94     0  02:42           0        1.89       0.467
  WS02006116           JUNCTION      0.00   247.61     0  02:43           0        1.88       0.487
  WS02006230           JUNCTION     10.28   158.05     0  02:41        0.29        1.26       0.404
  WS02006231           JUNCTION      0.00   151.34     0  02:39           0       0.968      -0.163
  WS02006232           JUNCTION      0.00   155.76     0  02:37           0       0.974       0.667
  WS02006234           JUNCTION      0.00   155.88     0  02:36           0       0.966      -0.862
  WS02006235           JUNCTION      0.00   175.29     0  02:50           0        1.19       0.830
  WS02006238           JUNCTION      0.00   126.13     0  03:09           0        0.43      -0.123
  WS02006240           JUNCTION      0.00    54.88     0  02:51           0       0.237       0.559
  WS02006242           JUNCTION      0.00    44.45     0  02:52           0       0.153       0.760
  WS02006243           JUNCTION      0.00    22.96     0  02:26           0       0.101       0.066
  WS02006245           JUNCTION      0.00    22.97     0  02:25           0      0.0928       0.738
  WS02006247           JUNCTION      0.00    23.00     0  02:24           0      0.0928       0.123
  WS02006248           JUNCTION      0.00    23.00     0  02:24           0      0.0929       0.037
  WS02006249           JUNCTION      0.00    23.06     0  02:22           0      0.0932       0.373
  WS02006239           JUNCTION      0.00    76.26     0  02:32           0       0.334       0.006
  WS02006251           JUNCTION      0.08    23.10     0  02:21     0.00217      0.0933       0.081
  WS02006252           JUNCTION      0.00     0.00     0  00:00           0           0       0.000 ltr
  WS02006253           JUNCTION      0.86    23.05     0  02:21     0.00213      0.0913       0.167
  WS02006256           JUNCTION      0.00   300.00     0  02:30           0        1.81       0.617
  WS02004138           JUNCTION      0.00   285.00     0  02:10           0        6.21       0.060
  WS02004407           JUNCTION      0.00   235.01     0  02:45           0        1.79       0.123
  WS02006228           JUNCTION      0.00   252.37     0  02:41           0        1.88       0.380
  WS02006229           JUNCTION      0.00   253.93     0  02:39           0        1.89       0.546
  WS02006280           JUNCTION      0.00   124.71     0  02:23           0       0.639       0.012
  WS02006284           JUNCTION      0.10   124.72     0  02:22      0.0027        0.64       0.175
  WS02006287           JUNCTION      0.00   124.63     0  02:22           0       0.638       0.108
  WSF200               JUNCTION      0.00   221.21     0  02:48           0        1.74       0.083
  HS02004901           JUNCTION      6.84     6.84     0  02:13      0.0198      0.0199       9.676
  HS02004881           JUNCTION      2.74    22.41     0  02:21     0.00861      0.0892       0.066
  HS02004876           JUNCTION      4.27    19.93     0  02:21      0.0164      0.0811       0.641
  HS02004870           JUNCTION      4.79    15.78     0  02:21      0.0163      0.0648       0.163
  HS02004862           JUNCTION      3.93    11.36     0  02:21      0.0218      0.0487       0.342
  HS02004856           JUNCTION      3.55     7.48     0  02:21      0.0122      0.0283       5.350
  HS02004852           JUNCTION      0.00     4.19     0  02:21           0      0.0161       0.295
  HS02004848           JUNCTION      7.55     7.55     0  02:23      0.0383      0.0383       0.111
  HS02004842           JUNCTION      0.00     4.49     0  00:03           0      0.0353      58.368
  HS02004837           JUNCTION     13.96    17.18     0  02:19       0.207        0.23       0.344
  HS02004830           JUNCTION      0.15    17.32     0  02:20     0.00423        0.22       0.562
  HS02004824           JUNCTION      8.40    25.62     0  02:23      0.0504       0.269       0.201
  HS02004817           JUNCTION      0.60    26.22     0  02:23      0.0169       0.286       6.194
  HS02004807           JUNCTION      9.04    34.38     0  02:22        0.03       0.299       1.434
  HS02004802           JUNCTION      0.00    34.42     0  02:24           0       0.295       1.398
  HS02004799           JUNCTION      6.92    76.88     0  02:19      0.0242       0.312       0.725
  HS02004792           JUNCTION     31.28    70.22     0  02:19       0.109       0.288       0.145
  HS02004788           JUNCTION     11.04    40.96     0  02:21      0.0807        0.18       0.214
  HS02004785           JUNCTION      0.15    30.43     0  02:20     0.00423       0.102       0.473
  HS02004777           JUNCTION      0.03    30.88     0  02:18    0.000846       0.102       5.354
  HS02004770           JUNCTION     26.47    32.12     0  02:16      0.0843       0.102       3.116
  HS02004480           JUNCTION      0.00    90.48     0  02:20           0        0.36       0.189
  HS02004479           JUNCTION      0.00    13.94     0  02:23           0      0.0603       1.221
  HS02004478           JUNCTION      0.00   124.63     0  02:22           0       0.639       0.103
  YS02001745           JUNCTION     38.62    42.96     0  05:51       0.463       0.476       1.104
  YS02001748           JUNCTION      0.04    58.09     0  05:51     0.00127       0.482       3.996
  YS02001751           JUNCTION      0.01    76.87     0  04:04     0.00031       0.451       5.509
  YS02001754           JUNCTION      0.26    95.47     0  03:15     0.00733       0.433       6.210
  YS02001762           JUNCTION      0.00    72.00     0  03:20           0       0.472       4.991
  YS02001765           JUNCTION      0.00    73.64     0  03:19           0       0.475       5.636
  YS02001767           JUNCTION      0.54    63.10     0  03:51      0.0151       0.498       7.934
  YS02001770           JUNCTION     50.47    62.73     0  04:18       0.555       0.577       6.184
  YS02001774           JUNCTION      0.00    35.76     0  04:20           0      0.0884      43.300
  YS02001779           JUNCTION      0.01    33.76     0  04:20    0.000141      0.0398      66.446
  YS02001882           JUNCTION      0.00     2.38     0  02:12           0     0.00344      71.308
  YS02001884           JUNCTION      0.00     7.37     0  02:07           0       0.014      44.958
  YS02001759           JUNCTION     49.61   112.19     0  03:18       0.521       0.958       2.579
  YS02001887           JUNCTION     66.48    66.48     0  02:44       0.637       0.643       1.034
  YS02001890           JUNCTION      0.00    66.10     0  02:47           0       0.625       1.174
  YS02001898           JUNCTION      0.00    65.82     0  02:50           0       0.614       0.291
  YS02001901           JUNCTION      0.00    65.86     0  02:50           0       0.614       0.813
  YS02001904           JUNCTION      0.00    65.57     0  02:51           0       0.614       0.758
  YS02001907           JUNCTION      0.00   118.57     0  02:58           0        1.31       1.644
  YS02001910           JUNCTION      0.00    53.69     0  03:01           0       0.704       1.362
  YS02001915           JUNCTION     34.85    53.37     0  03:01         0.4       0.707       0.553
  YS02001918           JUNCTION      0.00    18.67     0  03:03           0       0.308       0.268
  YS02001619           JUNCTION     33.80    33.80     0  02:59       0.394       0.394       3.147
  YS02001629           JUNCTION      0.00    47.65     0  04:23           0       0.314       9.859
  YS02001641           JUNCTION      0.00    67.33     0  03:05           0       0.659       3.545
  YS02001644           JUNCTION     36.65   101.06     0  03:04       0.444        1.07       2.609
  YS02001652           JUNCTION      0.00    61.53     0  03:18           0       0.417       6.242
  YS02001655           JUNCTION      0.15    73.30     0  04:00     0.00434       0.441       5.924
  YS02001920           JUNCTION      2.87    18.68     0  03:02      0.0809        0.31       0.553
  YS02001923           JUNCTION      0.04    15.81     0  03:02     0.00106       0.229       0.097
  YS02001926           JUNCTION      0.05    15.82     0  03:01     0.00147       0.229       0.706
  YS02001929           JUNCTION     15.77    15.77     0  03:01       0.228       0.228       0.092
  YS02001658           JUNCTION      0.00    47.24     0  04:02           0       0.457       4.277
  YS02001661           JUNCTION      0.00    46.71     0  02:46           0       0.462       2.256
  YS02001664           JUNCTION     46.71    46.71     0  02:46        0.46        0.46       0.026
  YS02001622           JUNCTION      0.00    41.03     0  04:23           0       0.382       8.995
  YS02001633           JUNCTION     37.28    76.67     0  02:38       0.458        0.72       4.806
  YS02001649           JUNCTION      0.00   165.86     0  03:19           0         1.4       2.891
  YS02001757           JUNCTION      0.00   326.33     0  03:07           0        2.66       3.651
  YS02001895           JUNCTION      0.00    65.90     0  02:49           0       0.618       0.514
  YS02001625           JUNCTION      0.00    49.78     0  04:15           0       0.353      12.593
  YS02163301           JUNCTION      0.00    39.25     0  02:38           0       0.289       9.637
  YS02163601           JUNCTION      0.11    74.73     0  02:38      0.0031       0.687       4.778
  YS02164001           JUNCTION      0.00    67.79     0  03:04           0       0.665       3.530
  YS02001647           JUNCTION      0.00   102.15     0  03:05           0        1.04       2.961
  YSB1154              JUNCTION      7.60     7.60     0  02:17      0.0293      0.0307       4.938
  YSB6556              JUNCTION      0.00     7.50     0  02:20           0      0.0317       4.080
  YSB1174              JUNCTION      7.83     7.83     0  02:12      0.0214      0.0225       6.062
  YSB1171              JUNCTION      0.00    13.95     0  02:20           0      0.0597      11.825
  YS02006553           JUNCTION      0.00   118.64     0  03:02           0         1.3       1.071
  YS02006561           JUNCTION      0.00   174.02     0  02:57           0        1.83       0.028
  YS02006556           JUNCTION      0.00   118.80     0  03:02           0         1.3       0.767
  YS02006558           JUNCTION     56.02   174.04     0  02:56        0.58        1.86       0.232
  YS02001783           JUNCTION      0.00   174.02     0  02:57           0        1.83       0.066
  YS02001784           JUNCTION      1.06   175.08     0  02:57      0.0299        1.86       0.111
  YS02001786           JUNCTION      0.06   175.12     0  02:56     0.00159        1.86       0.108
  YS02001788           JUNCTION      0.07   175.18     0  02:57       0.002        1.86       0.061
  YS02001790           JUNCTION      0.15   175.33     0  02:57     0.00437        1.86       0.078
  YS02001791           JUNCTION      0.00   175.33     0  02:58           0        1.86       0.032
  YS02001793           JUNCTION      0.00   347.12     0  02:52           0        1.88       0.110
  WS02004139           JUNCTION      0.32   286.38     0  07:39     0.00905        6.22       0.582
  WSC                  OUTFALL       0.00   527.58     0  02:51           0        8.44       0.000
  3                    OUTFALL       0.00   252.56     0  02:31           0       0.894       0.000
  4                    OUTFALL       0.00     0.00     0  00:00           0           0       0.000 ltr
  5                    OUTFALL       0.00     0.00     0  00:00           0           0       0.000 ltr
  JK-storage           STORAGE       0.00   682.96     0  02:52           0        2.02       0.426
  CC-storage           STORAGE       0.00   260.60     0  02:59           0        2.55       2.086
  XR-storage           STORAGE     263.35   263.35     0  02:52        6.41        7.01       0.000
  
  
  **********************
  Node Surcharge Summary
  **********************
  
  Surcharging occurs when water rises above the top of the highest conduit.
  ---------------------------------------------------------------------
                                               Max. Height   Min. Depth
                                   Hours       Above Crown    Below Rim
  Node                 Type      Surcharged         Meters       Meters
  ---------------------------------------------------------------------
  YS02001751           JUNCTION        0.24          0.019        1.181
  YS02001754           JUNCTION        2.32          0.240        0.910
  YS02001762           JUNCTION        3.88          0.498        0.652
  YS02001765           JUNCTION        3.61          0.448        0.652
  YS02001767           JUNCTION        3.43          0.410        0.620
  YS02001770           JUNCTION        3.22          0.374        0.546
  YS02001774           JUNCTION        3.77          0.477        0.573
  YS02001779           JUNCTION        2.11          0.212        0.468
  YS02001759           JUNCTION        4.05          0.534        0.676
  YS02001641           JUNCTION        3.69          0.461        0.639
  YS02001644           JUNCTION        3.71          0.466        0.454
  YS02001652           JUNCTION        2.56          0.272        0.858
  YS02001655           JUNCTION        0.58          0.048        1.152
  YS02001633           JUNCTION        3.50          0.425        0.635
  YS02001649           JUNCTION        3.92          0.508        0.542
  YS02001757           JUNCTION        4.55          0.637        0.573
  YS02001625           JUNCTION        2.72          0.295        0.485
  YS02163301           JUNCTION        3.26          0.382        0.648
  YS02163601           JUNCTION        3.89          0.500        0.580
  YS02164001           JUNCTION        3.57          0.440        0.660
  YS02001647           JUNCTION        2.68          0.288        0.612
  
  
  *********************
  Node Flooding Summary
  *********************
  
  No nodes were flooded.
  
  
  **********************
  Storage Volume Summary
  **********************
  
  --------------------------------------------------------------------------------------------------
                         Average     Avg  Evap Exfil       Maximum     Max    Time of Max    Maximum
                          Volume    Pcnt  Pcnt  Pcnt        Volume    Pcnt     Occurrence    Outflow
  Storage Unit           1000 m3    Full  Loss  Loss       1000 m3    Full    days hr:min        LPS
  --------------------------------------------------------------------------------------------------
  JK-storage               0.192      66     0     0         0.230      79       0  03:09     462.29
  CC-storage               1.085       7     0     0         2.501      16       0  07:50       0.00
  XR-storage               0.794      86     0     0         0.840      91       0  03:20     285.00
  
  
  ***********************
  Outfall Loading Summary
  ***********************
  
  -----------------------------------------------------------
                         Flow       Avg       Max       Total
                         Freq      Flow      Flow      Volume
  Outfall Node           Pcnt       LPS       LPS    10^6 ltr
  -----------------------------------------------------------
  WSC                   99.99    348.46    527.58       8.443
  3                     58.81    151.90    252.56       0.894
  4                      0.00      0.00      0.00       0.000
  5                      0.00      0.00      0.00       0.000
  -----------------------------------------------------------
  System                39.70    500.36    751.33       9.337
  
  
  ********************
  Link Flow Summary
  ********************
  
  -----------------------------------------------------------------------------
                                 Maximum  Time of Max   Maximum    Max/    Max/
                                  |Flow|   Occurrence   |Veloc|    Full    Full
  Link                 Type          LPS  days hr:min     m/sec    Flow   Depth
  -----------------------------------------------------------------------------
  WS02003066WSF200     CONDUIT    221.21     0  02:48      2.27    0.04    0.14
  WS02006287WS02006284 CONDUIT    124.62     0  02:22      1.36    0.06    0.17
  WS02006284WS02006280 CONDUIT    124.71     0  02:23      1.61    0.05    0.16
  WS02006280WS02006229 CONDUIT    124.72     0  02:23      2.57    0.03    0.11
  WS02006229WS02006228 CONDUIT    252.37     0  02:41      0.60    0.84    0.80
  WS02006256WS02006235 CONDUIT    166.35     0  04:31      2.56    1.76    1.00
  WS02006253WS02006251 CONDUIT     23.03     0  02:21      0.40    0.07    0.21
  WS02006252WS02006251 CONDUIT      0.00     0  00:00      0.00    0.00    0.00
  WS02006251WS02006249 CONDUIT     23.06     0  02:22      0.44    0.07    0.19
  WS02006249WS02006248 CONDUIT     23.00     0  02:24      0.52    0.13    0.17
  WS02006248WS02006247 CONDUIT     23.00     0  02:24      0.52    0.05    0.17
  WS02006247WS02006245 CONDUIT     22.97     0  02:25      0.46    0.18    0.19
  WS02006245WS02006243 CONDUIT     22.96     0  02:26      0.59    0.07    0.18
  WS02006243WS02006242 CONDUIT     30.71     0  02:43      0.47    0.07    0.29
  WS02006242WS02006240 CONDUIT     45.72     0  02:43      0.50    0.18    0.39
  WS02006240WS02006239 CONDUIT     60.77     0  02:42      0.59    0.19    0.41
  WS02006239WS02006238 CONDUIT     88.66     0  02:41      0.66    0.28    0.53
  WS02006238WS02006235 CONDUIT    126.87     0  02:42      1.07    0.28    0.58
  WS02006235WS02006234 CONDUIT    155.88     0  02:36      0.93    1.64    0.52
  WS02006234WS02006232 CONDUIT    155.76     0  02:37      0.83    0.32    0.60
  WS02006232WS02006231 CONDUIT    151.34     0  02:39      0.68    0.32    0.58
  WS02006231WS02006230 CONDUIT    147.77     0  02:41      0.98    2.24    0.42
  WS02006230WS02006229 CONDUIT    157.76     0  02:41      0.52    3.51    0.84
  WS02006228WS02006109 CONDUIT    252.24     0  02:41      0.56    1.10    0.83
  WS02006116WS02004401 CONDUIT    244.11     0  02:43      0.51    0.34    0.59
  WS02006115WS02006116 CONDUIT    247.61     0  02:43      0.64    0.32    0.50
  WS02006113WS02006111 CONDUIT    254.19     0  02:42      1.91    0.30    0.31
  WS02006112WS02006115 CONDUIT    251.94     0  02:42      0.50    0.15    0.62
  WS02006111WS02006112 CONDUIT    252.18     0  02:42      0.84    0.12    0.58
  WS02006110WS02006113 CONDUIT    252.69     0  02:42      0.77    0.23    0.62
  WS02006109WS02006110 CONDUIT    253.05     0  02:41      0.59    0.49    0.79
  WS02004411WS02004412 CONDUIT    225.70     0  02:46      0.78    0.32    0.47
  WS02004401WS02004402 CONDUIT    241.66     0  02:43      0.47    0.29    0.62
  WS02004413WS02003067 CONDUIT    221.27     0  02:47      0.68    0.09    0.43
  WS02004412WS02004413 CONDUIT    223.25     0  02:47      0.71    0.15    0.57
  WS02004410WS02004411 CONDUIT    228.37     0  02:46      0.68    0.31    0.45
  WS02004409WS02004410 CONDUIT    231.58     0  02:45      0.73    0.30    0.42
  WS02004407WS02004409 CONDUIT    234.62     0  02:45      1.17    0.08    0.30
  WS02004406WS02004407 CONDUIT    235.01     0  02:45      0.63    0.11    0.48
  WS02004405WS02004406 CONDUIT    236.20     0  02:44      0.37    0.47    0.75
  WS02004404WS02004405 CONDUIT    237.15     0  02:44      0.38    2.32    0.75
  WS02004403WS02004404 CONDUIT    237.72     0  02:44      0.40    0.17    0.71
  WS02004402WS02004403 CONDUIT    239.27     0  02:44      0.44    0.34    0.66
  WS02004139WS02001211 CONDUIT    287.25     0  07:40      0.54    0.36    0.51
  WS02004138WS02004139 CONDUIT    286.06     0  07:39      2.39    0.06    0.38
  WS02003067WS02003066 CONDUIT    221.25     0  02:48      0.74    0.07    0.31
  WS02001213WS02003059 CONDUIT    295.01     0  02:58      0.59    0.49    0.65
  WS02001212WS02001213 CONDUIT    294.05     0  02:58      1.19    0.45    0.36
  WS02001211WS02001212 CONDUIT    293.57     0  02:59      0.67    0.22    0.55
  WS02003072WS02003073 CONDUIT    526.00     0  02:50      1.41    1.14    0.36
  WS02003069WS02003072 CONDUIT    525.97     0  02:50      1.35    0.25    0.38
  WS02003060WS02003069 CONDUIT    525.74     0  02:49      1.62    0.21    0.33
  WS02003059WS02003060 CONDUIT    296.40     0  02:57      0.82    0.19    0.53
  HS02004901HS02004770 CONDUIT      6.02     0  02:18      0.03    0.02    0.26
  HS02004876HS02004881 CONDUIT     19.94     0  02:22      0.39    0.21    0.07
  HS02004870HS02004876 CONDUIT     15.76     0  02:22      0.27    0.01    0.08
  HS02004842HS02004848 CONDUIT      3.58     0  02:32      0.02    0.00    0.26
  HS02004837HS02004842 CONDUIT      4.49     0  00:03      0.42    0.00    0.28
  HS02004830HS02004837 CONDUIT     17.17     0  02:20      0.38    0.02    0.06
  HS02004824HS02004830 CONDUIT     17.32     0  02:21      0.43    0.02    0.06
  HS02004817HS02004824 CONDUIT     25.62     0  02:23      0.17    0.01    0.37
  HS02004770HS02004777 CONDUIT     30.85     0  02:18      0.16    0.06    0.28
  HS02004799HS02004480 CONDUIT     76.73     0  02:20      0.45    0.10    0.24
  HS02004792HS02004799 CONDUIT     70.18     0  02:20      0.52    0.04    0.19
  HS02004788HS02004792 CONDUIT     40.92     0  02:21      0.69    0.03    0.09
  HS02004785HS02004788 CONDUIT     30.32     0  02:21      0.40    0.23    0.11
  HS02004777HS02004785 CONDUIT     30.28     0  02:20      0.20    0.04    0.22
  HS02004480HS02004478 CONDUIT     90.46     0  02:21      0.77    0.38    0.17
  HS02004479HS02004480 CONDUIT     14.06     0  02:23      0.15    0.01    0.24
  HS02004862HS02004870 CONDUIT     11.32     0  02:23      0.37    0.01    0.04
  HS02004848HS02004852 CONDUIT      4.19     0  02:21      0.24    0.00    0.03
  HS02004856HS02004862 CONDUIT      7.45     0  02:22      0.27    0.01    0.04
  HS02004852HS02004856 CONDUIT      4.16     0  02:23      0.08    0.00    0.08
  HS02004802HS02004478 CONDUIT     34.58     0  02:25      0.23    0.03    0.21
  HS02004478WS02006287 CONDUIT    124.63     0  02:22      1.05    0.03    0.13
  HS02004817HS02004807 CONDUIT     26.43     0  02:26      0.08    0.02    0.47
  HS02004807HS02004802 CONDUIT     34.42     0  02:24      0.19    0.07    0.25
  YS02001759YS02001757 CONDUIT    109.71     0  02:59      0.15    0.08    1.00
  YS02001762YS02001759 CONDUIT     69.85     0  03:18      0.17    0.08    1.00
  YS02001765YS02001762 CONDUIT     72.00     0  03:20      0.22    0.07    1.00
  YS02001770YS02001767 CONDUIT     59.36     0  02:33      0.31    0.24    1.00
  YS02001774YS02001770 CONDUIT     35.76     0  04:20      0.12    0.02    1.00
  YS02001779YS02001774 CONDUIT     33.76     0  04:20      0.07    0.02    1.00
  YS02001649YS02001757 CONDUIT    154.82     0  03:01      0.21    0.09    1.00
  YS02001767YS02001765 CONDUIT     73.64     0  03:19      0.26    0.09    1.00
  YS02006561YS02001783 CONDUIT    174.02     0  02:57      1.53    0.09    0.28
  YS02001783YS02001784 CONDUIT    174.02     0  02:57      1.02    0.24    0.37
  YS02001784YS02001785 CONDUIT    175.06     0  02:56      1.06    0.41    0.36
  YS02001788YS02001790 CONDUIT    175.18     0  02:57      1.61    0.13    0.27
  YS02001790YS02001791 CONDUIT    175.33     0  02:58      1.88    0.19    0.25
  YS02001791YS02001793 CONDUIT    187.89     0  02:53      3.66    0.08    0.47
  YS02001910YS02001907 CONDUIT     53.74     0  03:01      0.49    0.03    0.62
  YS02001786YS02001788 CONDUIT    175.11     0  02:57      1.46    0.34    0.29
  YS02001915YS02001910 CONDUIT     53.69     0  03:01      0.44    0.03    0.41
  YS02001918YS02001915 CONDUIT     18.66     0  03:04      0.44    0.01    0.19
  YS02001923YS02001920 CONDUIT     15.81     0  03:02      0.32    0.01    0.11
  YS02001926YS02001923 CONDUIT     15.78     0  03:02      0.38    0.02    0.10
  YS02001929YS02001926 CONDUIT     15.76     0  03:01      0.40    0.01    0.10
  YS02001920YS02001918 CONDUIT     18.67     0  03:03      0.36    0.02    0.12
  YS02001629YS02163301 CONDUIT     39.25     0  02:38      0.09    0.05    1.00
  YS02001619YS02001622 CONDUIT     41.03     0  04:23      0.56    0.06    0.98
  YS02001622YS02001625 CONDUIT     36.87     0  04:14      0.18    0.02    1.00
  YS02001625YS02001629 CONDUIT     47.65     0  04:23      0.18    0.02    0.98
  YS02163301YS02001633 CONDUIT     41.59     0  02:38      0.09    0.04    1.00
  YS02163601YS02164001 CONDUIT     67.79     0  03:04      0.11    0.06    1.00
  YS02164001YS02001641 CONDUIT     67.33     0  03:05      0.11    0.09    1.00
  YS02001641YS02001644 CONDUIT     65.12     0  03:04      0.13    0.21    1.00
  YS02001647YS02001649 CONDUIT    103.78     0  03:03      0.17    0.05    1.00
  YS02006553YS02006556 CONDUIT    118.80     0  03:02      0.20    0.10    0.71
  YS02006556YS02006558 CONDUIT    118.91     0  03:03      0.19    0.09    0.74
  YSB6556YSB1171       CONDUIT      7.54     0  02:24      0.04    0.01    0.51
  YS02001907YS02006553 CONDUIT    118.64     0  03:02      0.16    0.14    0.81
  YS02006558YS02006561 CONDUIT    174.02     0  02:57      1.97    0.38    0.35
  YS02001633YS02163601 CONDUIT     74.62     0  02:38      0.13    0.08    1.00
  YS02001644YS02001647 CONDUIT    102.15     0  03:05      0.18    0.06    1.00
  YS02001745YS02001748 CONDUIT     58.05     0  05:51      1.20    0.02    0.56
  YS02001748YS02001751 CONDUIT     76.86     0  04:04      0.95    0.04    0.91
  YS02001751YS02001754 CONDUIT     72.72     0  03:15      0.88    0.04    1.00
  YS02001754YS02001757 CONDUIT     91.15     0  03:16      0.33    0.04    1.00
  YS02001882YS02001884 CONDUIT      2.38     0  02:12      0.06    0.00    0.35
  YS02001884YS02001887 CONDUIT      7.37     0  02:07      0.05    0.01    0.44
  YS02001890YS02001895 CONDUIT     65.90     0  02:49      0.22    0.03    0.41
  YS02001895YS02001898 CONDUIT     65.82     0  02:50      0.44    0.11    0.28
  YS02001898YS02001901 CONDUIT     65.86     0  02:50      0.26    0.04    0.36
  YS02001901YS02001904 CONDUIT     65.57     0  02:51      0.22    0.10    0.41
  YS02001904YS02001907 CONDUIT     65.68     0  02:53      0.14    0.02    0.57
  YS02001887YS02001890 CONDUIT     66.10     0  02:47      0.17    0.11    0.50
  YS02001652YS02001649 CONDUIT     70.46     0  03:18      0.29    0.03    1.00
  YS02001655YS02001652 CONDUIT     61.53     0  03:18      0.94    0.03    1.00
  YS02001658YS02001655 CONDUIT     73.15     0  04:00      1.09    0.03    0.88
  YS02001661YS02001658 CONDUIT     46.71     0  02:47      1.22    0.02    0.59
  YS02001664YS02001661 CONDUIT     46.71     0  02:46      0.83    0.01    0.26
  YSB1154YSB6556       CONDUIT      7.50     0  02:20      0.19    0.01    0.40
  YSB1174YSB1171       CONDUIT      7.16     0  02:14      0.04    0.01    0.52
  YSB1171HS02004479    CONDUIT     13.94     0  02:23      0.54    0.01    0.39
  HS02004881HS02006253 CONDUIT     22.40     0  02:21      1.34    0.00    0.02
  YS02001793JiankangQianchi CONDUIT    682.96     0  02:52      1.43    0.05    0.80
  YS02001757CaochengTiaoxuchi CONDUIT    260.60     0  02:59      0.63    0.11    0.95
  WSF200WS02003060     CONDUIT    221.16     0  02:48      1.18    0.05    0.23
  1                    CONDUIT    527.58     0  02:51      2.79    0.18    0.29
  2                    CONDUIT      0.00     0  00:00      0.00    0.00    0.00
  3                    CONDUIT    252.56     0  02:31      8.31    0.40    0.47
  4                    CONDUIT      0.00     0  00:00      0.00    0.00    0.00
  CC-Pump-1            PUMP         0.00     0  00:00              0.00
  CC-Pump-2            PUMP         0.00     0  00:00              0.00
  JK-Pump-1            PUMP       300.00     0  02:30              1.00
  JK-Pump-2            PUMP         0.00     0  00:00              0.00
  XR-Pump-1            PUMP        95.00     0  00:00              1.00
  XR-Pump-2            PUMP        95.00     0  00:25              1.00
  XR-Pump-3            PUMP        95.00     0  02:10              1.00
  XR-Pump-4            PUMP         0.00     0  00:00              0.00
  
  
  ***************************
  Flow Classification Summary
  ***************************
  
  -------------------------------------------------------------------------------------
                      Adjusted    ---------- Fraction of Time in Flow Class ---------- 
                       /Actual         Up    Down  Sub   Sup   Up    Down  Norm  Inlet 
  Conduit               Length    Dry  Dry   Dry   Crit  Crit  Crit  Crit  Ltd   Ctrl  
  -------------------------------------------------------------------------------------
  WS02003066WSF200        1.00   0.16  0.00  0.00  0.00  0.84  0.00  0.00  0.68  0.00
  WS02006287WS02006284    1.00   0.04  0.04  0.00  0.64  0.28  0.00  0.00  0.81  0.00
  WS02006284WS02006280    1.00   0.06  0.00  0.00  0.00  0.00  0.00  0.94  0.00  0.00
  WS02006280WS02006229    1.00   0.06  0.00  0.00  0.00  0.00  0.00  0.94  0.00  0.00
  WS02006229WS02006228    1.00   0.00  0.00  0.00  1.00  0.00  0.00  0.00  0.00  0.00
  WS02006256WS02006235    1.00   0.09  0.00  0.00  0.83  0.07  0.00  0.00  0.05  0.00
  WS02006253WS02006251    1.00   0.02  0.03  0.00  0.95  0.00  0.01  0.00  0.00  0.00
  WS02006252WS02006251    1.00   1.00  0.00  0.00  0.00  0.00  0.00  0.00  0.00  0.00
  WS02006251WS02006249    1.00   0.00  0.00  0.00  1.00  0.00  0.00  0.00  0.98  0.00
  WS02006249WS02006248    1.00   0.00  0.01  0.00  0.00  0.00  0.99  0.00  0.00  0.00
  WS02006248WS02006247    1.00   0.01  0.00  0.00  0.97  0.00  0.00  0.02  0.87  0.00
  WS02006247WS02006245    1.00   0.01  0.00  0.00  0.95  0.00  0.00  0.04  0.00  0.00
  WS02006245WS02006243    1.00   0.01  0.00  0.00  0.84  0.00  0.00  0.14  0.11  0.00
  WS02006243WS02006242    1.00   0.02  0.00  0.00  0.93  0.00  0.00  0.06  0.61  0.00
  WS02006242WS02006240    1.00   0.02  0.06  0.00  0.91  0.00  0.01  0.00  0.01  0.00
  WS02006240WS02006239    1.00   0.08  0.00  0.00  0.77  0.00  0.00  0.15  0.09  0.00
  WS02006239WS02006238    1.00   0.08  0.00  0.00  0.91  0.00  0.00  0.02  0.05  0.00
  WS02006238WS02006235    1.00   0.08  0.01  0.00  0.91  0.00  0.00  0.00  0.00  0.00
  WS02006235WS02006234    1.00   0.10  0.01  0.00  0.78  0.00  0.11  0.00  0.00  0.00
  WS02006234WS02006232    1.00   0.11  0.00  0.00  0.89  0.00  0.00  0.00  0.02  0.00
  WS02006232WS02006231    1.00   0.12  0.02  0.00  0.84  0.00  0.02  0.00  0.01  0.00
  WS02006231WS02006230    1.00   0.13  0.00  0.00  0.03  0.00  0.84  0.00  0.00  0.00
  WS02006230WS02006229    1.00   0.00  0.00  0.00  0.99  0.00  0.00  0.01  0.03  0.00
  WS02006228WS02006109    1.00   0.00  0.00  0.00  1.00  0.00  0.00  0.00  0.00  0.00
  WS02006116WS02004401    1.00   0.05  0.00  0.00  0.95  0.00  0.00  0.00  0.01  0.00
  WS02006115WS02006116    1.00   0.05  0.00  0.00  0.91  0.00  0.00  0.05  0.00  0.00
  WS02006113WS02006111    1.00   0.03  0.00  0.00  0.01  0.96  0.00  0.00  0.10  0.00
  WS02006112WS02006115    1.00   0.03  0.02  0.00  0.95  0.00  0.00  0.00  0.00  0.00
  WS02006111WS02006112    1.00   0.03  0.00  0.00  0.96  0.00  0.00  0.00  0.92  0.00
  WS02006110WS02006113    1.00   0.00  0.02  0.00  0.97  0.00  0.00  0.00  0.00  0.00
  WS02006109WS02006110    1.00   0.00  0.00  0.00  0.99  0.00  0.01  0.00  0.00  0.00
  WS02004411WS02004412    1.00   0.12  0.00  0.00  0.88  0.00  0.00  0.00  0.00  0.00
  WS02004401WS02004402    1.00   0.05  0.00  0.00  0.95  0.00  0.00  0.00  0.04  0.00
  WS02004413WS02003067    1.00   0.13  0.02  0.00  0.00  0.00  0.85  0.00  0.00  0.00
  WS02004412WS02004413    1.00   0.13  0.00  0.00  0.87  0.00  0.00  0.00  0.00  0.00
  WS02004410WS02004411    1.00   0.12  0.00  0.00  0.88  0.00  0.00  0.00  0.00  0.00
  WS02004409WS02004410    1.00   0.12  0.00  0.00  0.88  0.00  0.00  0.00  0.00  0.00
  WS02004407WS02004409    1.00   0.12  0.00  0.00  0.87  0.01  0.00  0.00  0.72  0.00
  WS02004406WS02004407    1.00   0.00  0.12  0.00  0.88  0.00  0.00  0.00  0.00  0.00
  WS02004405WS02004406    1.00   0.00  0.00  0.00  1.00  0.00  0.00  0.00  0.04  0.00
  WS02004404WS02004405    1.00   0.00  0.00  0.00  1.00  0.00  0.00  0.00  0.01  0.00
  WS02004403WS02004404    1.00   0.00  0.05  0.00  0.95  0.00  0.00  0.00  0.04  0.00
  WS02004402WS02004403    1.00   0.05  0.00  0.00  0.95  0.00  0.00  0.00  0.00  0.00
  WS02004139WS02001211    1.00   0.00  0.00  0.00  1.00  0.00  0.00  0.00  0.00  0.00
  WS02004138WS02004139    1.00   0.00  0.00  0.00  1.00  0.00  0.00  0.00  1.00  0.00
  WS02003067WS02003066    1.00   0.15  0.01  0.00  0.85  0.00  0.00  0.00  0.00  0.00
  WS02001213WS02003059    1.00   0.00  0.00  0.00  1.00  0.00  0.00  0.00  0.00  0.00
  WS02001212WS02001213    1.00   0.00  0.00  0.00  0.08  0.00  0.92  0.00  0.00  0.00
  WS02001211WS02001212    1.00   0.00  0.00  0.00  1.00  0.00  0.00  0.00  0.00  0.00
  WS02003072WS02003073    1.00   0.00  0.00  0.00  0.00  0.00  0.00  1.00  0.00  0.00
  WS02003069WS02003072    1.00   0.00  0.00  0.00  1.00  0.00  0.00  0.00  0.72  0.00
  WS02003060WS02003069    1.00   0.00  0.00  0.00  0.99  0.01  0.00  0.00  0.39  0.00
  WS02003059WS02003060    1.00   0.00  0.00  0.00  1.00  0.00  0.00  0.00  0.02  0.00
  HS02004901HS02004770    1.00   0.06  0.00  0.00  0.94  0.00  0.00  0.00  0.03  0.00
  HS02004876HS02004881    1.00   0.01  0.00  0.00  0.99  0.00  0.00  0.00  0.00  0.00
  HS02004870HS02004876    1.00   0.00  0.00  0.00  0.99  0.00  0.00  0.00  0.95  0.00
  HS02004842HS02004848    1.00   0.00  0.06  0.00  0.94  0.00  0.00  0.00  0.71  0.00
  HS02004837HS02004842    1.00   0.00  0.00  0.00  1.00  0.00  0.00  0.00  0.11  0.00
  HS02004830HS02004837    1.00   0.00  0.00  0.00  1.00  0.00  0.00  0.00  0.99  0.00
  HS02004824HS02004830    1.00   0.00  0.00  0.00  1.00  0.00  0.00  0.00  0.00  0.00
  HS02004817HS02004824    1.00   0.00  0.00  0.00  1.00  0.00  0.00  0.00  1.00  0.00
  HS02004770HS02004777    1.00   0.00  0.06  0.00  0.94  0.00  0.00  0.00  0.08  0.00
  HS02004799HS02004480    1.00   0.00  0.01  0.00  0.91  0.00  0.07  0.00  0.00  0.00
  HS02004792HS02004799    1.00   0.00  0.00  0.00  1.00  0.00  0.00  0.00  0.98  0.00
  HS02004788HS02004792    1.00   0.00  0.00  0.00  1.00  0.00  0.00  0.00  0.98  0.00
  HS02004785HS02004788    1.00   0.00  0.00  0.00  1.00  0.00  0.00  0.00  0.00  0.00
  HS02004777HS02004785    1.00   0.00  0.00  0.00  1.00  0.00  0.00  0.00  0.21  0.00
  HS02004480HS02004478    1.00   0.07  0.00  0.00  0.65  0.00  0.00  0.29  0.00  0.00
  HS02004479HS02004480    1.00   0.02  0.00  0.00  0.98  0.00  0.00  0.00  0.16  0.00
  HS02004862HS02004870    1.00   0.00  0.00  0.00  1.00  0.00  0.00  0.00  0.05  0.00
  HS02004848HS02004852    1.00   0.06  0.00  0.00  0.94  0.00  0.00  0.00  0.70  0.00
  HS02004856HS02004862    1.00   0.00  0.12  0.00  0.88  0.00  0.00  0.00  0.73  0.00
  HS02004852HS02004856    1.00   0.06  0.02  0.00  0.93  0.00  0.00  0.00  0.82  0.00
  HS02004802HS02004478    1.00   0.06  0.01  0.00  0.93  0.00  0.00  0.00  0.00  0.00
  HS02004478WS02006287    1.00   0.08  0.00  0.00  0.92  0.00  0.00  0.00  0.81  0.00
  HS02004817HS02004807    1.00   0.00  0.06  0.00  0.94  0.00  0.00  0.00  0.00  0.00
  HS02004807HS02004802    1.00   0.06  0.00  0.00  0.94  0.00  0.00  0.00  0.01  0.00
  YS02001759YS02001757    1.00   0.00  0.00  0.00  1.00  0.00  0.00  0.00  0.17  0.00
  YS02001762YS02001759    1.00   0.00  0.00  0.00  1.00  0.00  0.00  0.00  0.05  0.00
  YS02001765YS02001762    1.00   0.00  0.00  0.00  1.00  0.00  0.00  0.00  0.23  0.00
  YS02001770YS02001767    1.00   0.00  0.00  0.00  1.00  0.00  0.00  0.00  0.00  0.00
  YS02001774YS02001770    1.00   0.00  0.08  0.00  0.92  0.00  0.00  0.00  0.07  0.00
  YS02001779YS02001774    1.00   0.00  0.00  0.00  1.00  0.00  0.00  0.00  0.28  0.00
  YS02001649YS02001757    1.00   0.00  0.00  0.00  1.00  0.00  0.00  0.00  0.19  0.00
  YS02001767YS02001765    1.00   0.00  0.00  0.00  1.00  0.00  0.00  0.00  0.01  0.00
  YS02006561YS02001783    1.00   0.12  0.00  0.00  0.00  0.88  0.00  0.00  0.72  0.00
  YS02001783YS02001784    1.00   0.00  0.12  0.00  0.88  0.00  0.00  0.00  0.10  0.00
  YS02001784YS02001785    1.00   0.00  0.00  0.00  1.00  0.00  0.00  0.00  0.26  0.00
  YS02001788YS02001790    1.00   0.00  0.00  0.00  0.13  0.87  0.00  0.00  0.99  0.00
  YS02001790YS02001791    1.00   0.00  0.00  0.00  0.01  0.99  0.00  0.00  0.36  0.00
  YS02001791YS02001793    1.00   0.00  0.00  0.00  0.19  0.81  0.00  0.00  0.25  0.00
  YS02001910YS02001907    1.00   0.00  0.00  0.00  0.99  0.00  0.00  0.01  0.13  0.00
  YS02001786YS02001788    1.00   0.00  0.00  0.00  0.13  0.87  0.00  0.00  0.00  0.00
  YS02001915YS02001910    1.00   0.00  0.00  0.00  0.99  0.01  0.00  0.00  0.25  0.00
  YS02001918YS02001915    1.00   0.00  0.00  0.00  0.99  0.01  0.00  0.00  0.81  0.00
  YS02001923YS02001920    1.00   0.00  0.00  0.00  1.00  0.00  0.00  0.00  1.00  0.00
  YS02001926YS02001923    1.00   0.00  0.03  0.00  0.00  0.00  0.97  0.00  0.00  0.00
  YS02001929YS02001926    1.00   0.00  0.06  0.00  0.94  0.00  0.00  0.00  0.86  0.00
  YS02001920YS02001918    1.00   0.00  0.00  0.00  1.00  0.00  0.00  0.00  0.00  0.00
  YS02001629YS02163301    1.00   0.10  0.01  0.00  0.89  0.00  0.00  0.00  0.00  0.00
  YS02001619YS02001622    1.00   0.06  0.00  0.00  0.94  0.00  0.00  0.00  0.00  0.00
  YS02001622YS02001625    1.00   0.06  0.00  0.00  0.94  0.00  0.00  0.00  0.14  0.00
  YS02001625YS02001629    1.00   0.06  0.06  0.00  0.84  0.00  0.03  0.00  0.00  0.00
  YS02163301YS02001633    1.00   0.00  0.10  0.00  0.90  0.00  0.00  0.00  0.00  0.00
  YS02163601YS02164001    1.00   0.00  0.03  0.00  0.97  0.00  0.00  0.00  0.00  0.00
  YS02164001YS02001641    1.00   0.00  0.03  0.00  0.96  0.00  0.00  0.00  0.07  0.00
  YS02001641YS02001644    1.00   0.00  0.00  0.00  1.00  0.00  0.00  0.00  0.00  0.00
  YS02001647YS02001649    1.00   0.00  0.12  0.00  0.88  0.00  0.00  0.00  0.01  0.00
  YS02006553YS02006556    1.00   0.01  0.00  0.00  0.99  0.00  0.00  0.00  0.03  0.00
  YS02006556YS02006558    1.00   0.00  0.00  0.00  1.00  0.00  0.00  0.00  0.00  0.00
  YSB6556YSB1171          1.00   0.02  0.04  0.00  0.95  0.00  0.00  0.00  0.00  0.00
  YS02001907YS02006553    1.00   0.00  0.01  0.00  0.99  0.00  0.00  0.00  0.00  0.00
  YS02006558YS02006561    1.00   0.12  0.00  0.00  0.00  0.88  0.00  0.00  0.71  0.00
  YS02001633YS02163601    1.00   0.00  0.00  0.00  1.00  0.00  0.00  0.00  0.20  0.00
  YS02001644YS02001647    1.00   0.00  0.12  0.00  0.88  0.00  0.00  0.00  0.00  0.00
  YS02001745YS02001748    1.00   0.00  0.00  0.00  0.61  0.07  0.00  0.32  0.23  0.00
  YS02001748YS02001751    1.00   0.00  0.00  0.00  0.95  0.05  0.00  0.00  0.28  0.00
  YS02001751YS02001754    1.00   0.00  0.00  0.00  0.87  0.00  0.00  0.13  0.02  0.00
  YS02001754YS02001757    1.00   0.00  0.00  0.00  1.00  0.00  0.00  0.00  0.27  0.00
  YS02001882YS02001884    1.00   0.09  0.01  0.00  0.90  0.00  0.00  0.00  0.00  0.00
  YS02001884YS02001887    1.00   0.03  0.02  0.00  0.95  0.00  0.00  0.00  0.00  0.00
  YS02001890YS02001895    1.00   0.00  0.10  0.00  0.89  0.00  0.00  0.00  0.00  0.00
  YS02001895YS02001898    1.00   0.11  0.00  0.00  0.88  0.00  0.01  0.00  0.00  0.00
  YS02001898YS02001901    1.00   0.10  0.01  0.00  0.89  0.00  0.00  0.00  0.02  0.00
  YS02001901YS02001904    1.00   0.10  0.00  0.00  0.90  0.00  0.00  0.00  0.00  0.00
  YS02001904YS02001907    1.00   0.00  0.10  0.00  0.90  0.00  0.00  0.00  0.00  0.00
  YS02001887YS02001890    1.00   0.00  0.00  0.00  0.99  0.00  0.01  0.00  0.00  0.00
  YS02001652YS02001649    1.00   0.00  0.00  0.00  1.00  0.00  0.00  0.00  0.27  0.00
  YS02001655YS02001652    1.00   0.00  0.00  0.00  0.87  0.00  0.00  0.13  0.03  0.00
  YS02001658YS02001655    1.00   0.00  0.08  0.00  0.86  0.06  0.00  0.00  0.19  0.00
  YS02001661YS02001658    1.00   0.08  0.00  0.00  0.62  0.30  0.00  0.00  0.32  0.00
  YS02001664YS02001661    1.00   0.06  0.00  0.00  0.94  0.00  0.00  0.00  0.86  0.00
  YSB1154YSB6556          1.00   0.05  0.00  0.00  0.95  0.00  0.00  0.00  0.02  0.00
  YSB1174YSB1171          1.00   0.02  0.02  0.00  0.96  0.00  0.00  0.00  0.00  0.00
  YSB1171HS02004479       1.00   0.02  0.00  0.00  0.98  0.00  0.00  0.01  0.13  0.00
  HS02004881HS02006253    1.00   0.02  0.00  0.00  0.00  0.00  0.00  0.98  0.00  0.00
  YS02001793JiankangQianchi    1.00   0.00  0.00  0.00  1.00  0.00  0.00  0.00  0.72  0.00
  YS02001757CaochengTiaoxuchi    1.00   0.00  0.16  0.00  0.84  0.00  0.00  0.00  0.00  0.00
  WSF200WS02003060        1.00   0.00  0.16  0.00  0.84  0.00  0.00  0.00  0.69  0.00
  1                       1.00   0.00  0.00  0.00  0.00  1.00  0.00  0.00  0.20  0.00
  2                       1.00   1.00  0.00  0.00  0.00  0.00  0.00  0.00  0.00  0.00
  3                       1.00   0.41  0.00  0.00  0.00  0.59  0.00  0.00  0.01  0.00
  4                       1.00   1.00  0.00  0.00  0.00  0.00  0.00  0.00  0.00  0.00
  
  
  *************************
  Conduit Surcharge Summary
  *************************
  
  ----------------------------------------------------------------------------
                                                           Hours        Hours 
                         --------- Hours Full --------   Above Full   Capacity
  Conduit                Both Ends  Upstream  Dnstream   Normal Flow   Limited
  ----------------------------------------------------------------------------
  WS02006256WS02006235        1.29      1.32      5.17      1.64         0.01
  WS02006235WS02006234        0.01      0.01      0.01      1.38         0.01
  WS02006231WS02006230        0.01      0.01      0.01      1.66         0.01
  WS02006230WS02006229        0.01      0.01      0.01      2.93         0.01
  WS02006228WS02006109        0.01      0.01      0.01      0.08         0.01
  WS02004404WS02004405        0.01      0.01      0.01      1.69         0.01
  WS02003072WS02003073        0.01      0.01      0.01      0.44         0.01
  YS02001759YS02001757        4.05      4.05      4.55      0.01         0.01
  YS02001762YS02001759        3.88      3.88      4.05      0.01         0.01
  YS02001765YS02001762        3.61      3.61      3.88      0.01         0.01
  YS02001770YS02001767        3.37      3.37      3.43      0.01         0.02
  YS02001774YS02001770        3.22      3.22      3.77      0.01         0.01
  YS02001779YS02001774        2.10      2.10      3.77      0.01         0.01
  YS02001649YS02001757        3.92      3.92      4.55      0.01         0.01
  YS02001767YS02001765        3.43      3.43      3.61      0.01         0.01
  YS02001629YS02163301        3.07      3.07      3.26      0.01         0.01
  YS02001622YS02001625        0.01      0.01      2.72      0.01         0.01
  YS02001625YS02001629        0.01      0.01      2.72      0.01         0.01
  YS02163301YS02001633        3.26      3.26      3.60      0.01         0.01
  YS02163601YS02164001        3.58      3.58      3.89      0.01         0.01
  YS02164001YS02001641        3.58      3.58      3.69      0.01         0.01
  YS02001641YS02001644        3.69      3.69      3.71      0.01         0.02
  YS02001647YS02001649        2.68      2.68      3.92      0.01         0.01
  YS02001633YS02163601        3.50      3.50      3.89      0.01         0.01
  YS02001644YS02001647        2.68      2.68      3.71      0.01         0.01
  YS02001748YS02001751        0.01      0.01      0.24      0.01         0.01
  YS02001751YS02001754        0.24      0.24      2.32      0.01         0.01
  YS02001754YS02001757        2.69      2.69      4.55      0.01         0.01
  YS02001652YS02001649        2.77      2.77      3.92      0.01         0.01
  YS02001655YS02001652        0.58      0.58      2.56      0.01         0.01
  YS02001658YS02001655        0.01      0.01      0.58      0.01         0.01
  YS02001793JiankangQianchi        0.01      0.01      7.82      0.01         0.01
  YS02001757CaochengTiaoxuchi        0.01      0.01      4.55      0.01         0.01
  
  
  ***************
  Pumping Summary
  ***************
  
  ---------------------------------------------------------------------------------------------------------
                                                  Min       Avg       Max     Total     Power    % Time Off
                        Percent   Number of      Flow      Flow      Flow    Volume     Usage    Pump Curve
  Pump                 Utilized   Start-Ups       LPS       LPS       LPS  10^6 ltr     Kw-hr    Low   High
  ---------------------------------------------------------------------------------------------------------
  CC-Pump-1                0.00           0      0.00      0.00      0.00     0.000      0.00    0.0    0.0
  CC-Pump-2                0.00           0      0.00      0.00      0.00     0.000      0.00    0.0    0.0
  JK-Pump-1               21.23          13      0.00    300.00    300.00     1.796     16.01    0.0    0.0
  JK-Pump-2                0.00           0      0.00      0.00      0.00     0.000      0.00    0.0    0.0
  XR-Pump-1              100.00           1      0.00     95.00     95.00     2.679     20.46    0.0    0.0
  XR-Pump-2               94.70           1      0.00     95.00     95.00     2.537     19.03    0.0    0.0
  XR-Pump-3               37.33           6      0.00     95.00     95.00     1.000      7.51    0.0    0.0
  XR-Pump-4                0.00           0      0.00      0.00      0.00     0.000      0.00    0.0    0.0
  

  Analysis begun on:  Wed Jan  5 21:54:10 2022
  Analysis ended on:  Wed Jan  5 21:54:11 2022
  Total elapsed time: 00:00:01