
  EPA STORM WATER MANAGEMENT MODEL - VERSION 5.1 (Build 5.3.0.dev0)
  --------------------------------------------------------------

  WARNING 04: minimum elevation drop used for Conduit WS02004404WS02004405
  WARNING 03: negative offset ignored for Link YS02001904YS02001907
  
  *********************************************************
  NOTE: The summary statistics displayed in this report are
  based on results found at every computational time step,  
  not just on results from each reporting time step.
  *********************************************************
  
  ****************
  Analysis Options
  ****************
  Flow Units ............... LPS
  Process Models:
    Rainfall/Runoff ........ YES
    RDII ................... NO
    Snowmelt ............... NO
    Groundwater ............ NO
    Flow Routing ........... YES
    Ponding Allowed ........ NO
    Water Quality .......... NO
  Infiltration Method ...... HORTON
  Flow Routing Method ...... DYNWAVE
  Surcharge Method ......... EXTRAN
  Starting Date ............ 08/28/2015 08:00:00
  Ending Date .............. 08/28/2015 15:50:00
  Antecedent Dry Days ...... 8.0
  Report Time Step ......... 00:01:00
  Wet Time Step ............ 00:01:00
  Dry Time Step ............ 00:01:00
  Routing Time Step ........ 5.00 sec
  Variable Time Step ....... YES
  Maximum Trials ........... 8
  Number of Threads ........ 4
  Head Tolerance ........... 0.001500 m
  
  
  **************************        Volume         Depth
  Runoff Quantity Continuity     hectare-m            mm
  **************************     ---------       -------
  Total Precipitation ......         1.927         4.218
  Evaporation Loss .........         0.000         0.000
  Infiltration Loss ........         0.476         1.041
  Surface Runoff ...........         0.648         1.419
  Final Storage ............         0.803         1.759
  Continuity Error (%) .....        -0.017
  
  
  **************************        Volume        Volume
  Flow Routing Continuity        hectare-m      10^6 ltr
  **************************     ---------     ---------
  Dry Weather Inflow .......         0.616         6.165
  Wet Weather Inflow .......         0.648         6.476
  Groundwater Inflow .......         0.000         0.000
  RDII Inflow ..............         0.000         0.000
  External Inflow ..........         0.102         1.024
  External Outflow .........         0.938         9.382
  Flooding Loss ............         0.000         0.000
  Evaporation Loss .........         0.000         0.000
  Exfiltration Loss ........         0.000         0.000
  Initial Stored Volume ....         0.076         0.761
  Final Stored Volume ......         0.500         5.000
  Continuity Error (%) .....         0.299
  
  
  *************************
  Highest Continuity Errors
  *************************
  Node HS02004842 (36.51%)
  Node YS02001774 (33.37%)
  Node YS02001884 (30.86%)
  Node YS02001625 (11.10%)
  Node YSB1171 (10.47%)
  
  
  ***************************
  Time-Step Critical Elements
  ***************************
  Link 3 (58.97%)
  Link WS02006280WS02006229 (24.89%)
  Link WS02006238WS02006235 (5.09%)
  
  
  ********************************
  Highest Flow Instability Indexes
  ********************************
  Link WS02006113WS02006111 (21)
  Link YS02001629YS02163301 (6)
  Link YS02163301YS02001633 (6)
  Link YS02163601YS02164001 (6)
  Link YS02001647YS02001649 (5)
  
  
  *************************
  Routing Time Step Summary
  *************************
  Minimum Time Step           :     0.62 sec
  Average Time Step           :     2.07 sec
  Maximum Time Step           :     5.00 sec
  Percent in Steady State     :    -0.00
  Average Iterations per Step :     2.12
  Percent Not Converging      :     0.55
  
  
  ***************************
  Subcatchment Runoff Summary
  ***************************
  
  ------------------------------------------------------------------------------------------------------------------------------
                            Total      Total      Total      Total     Imperv       Perv      Total       Total     Peak  Runoff
                           Precip      Runon       Evap      Infil     Runoff     Runoff     Runoff      Runoff   Runoff   Coeff
  Subcatchment                 mm         mm         mm         mm         mm         mm         mm    10^6 ltr      LPS
  ------------------------------------------------------------------------------------------------------------------------------
  sub0                       4.22       0.00       0.00       0.30       2.66       0.00       2.66        0.00     0.77   0.630
  sub1                       4.22       0.00       0.00       0.46       2.50       0.00       2.50        0.02     3.99   0.593
  sub2                       4.22       0.00       0.00       1.56       1.75       0.00       1.75        0.02     3.52   0.416
  sub3                       4.22       0.00       0.00       1.56       1.72       0.00       1.72        0.04     7.23   0.408
  sub4                       4.22       0.00       0.00       0.46       2.37       0.00       2.37        0.05     8.09   0.563
  sub5                       4.22       0.00       0.00       0.30       2.61       0.00       2.61        0.03     7.10   0.619
  sub7                       4.22       0.00       0.00       0.38       2.58       0.00       2.58        0.01     2.51   0.613
  sub8                       4.22       0.00       0.00       0.38       2.58       0.00       2.58        0.02     4.43   0.611
  sub9                       4.22       0.00       0.00       0.38       2.57       0.00       2.57        0.01     3.28   0.610
  sub10                      4.22       0.00       0.00       0.34       2.59       0.00       2.59        0.03     7.09   0.614
  sub11                      4.22       0.00       0.00       0.34       2.61       0.00       2.61        0.03     8.34   0.618
  sub12                      4.22       0.00       0.00       0.55       2.48       0.00       2.48        0.02     7.09   0.588
  sub14                      4.22       0.00       0.00       0.38       2.57       0.00       2.57        0.02     6.41   0.610
  sub15                      4.22       0.00       0.00       1.27       1.98       0.00       1.98        0.03     8.69   0.468
  sub16                      4.22       0.00       0.00       1.39       1.91       0.00       1.91        0.02     6.22   0.452
  sub17                      4.22       0.00       0.00       1.35       1.93       0.00       1.93        0.02     5.02   0.459
  sub22                      4.22       0.00       0.00       1.81       1.62       0.00       1.62        0.10    28.52   0.383
  sub23                      4.22       0.00       0.00       1.56       1.79       0.00       1.79        0.09    24.31   0.424
  sub60                      4.22       0.00       0.00       0.51       1.54       0.00       1.54        0.47    39.69   0.366
  sub61                      4.22       0.00       0.00       0.72       1.70       0.00       1.70        0.53    50.66   0.404
  sub62                      4.22       0.00       0.00       0.34       1.81       0.00       1.81        0.56    51.64   0.429
  sub63                      4.22       0.00       0.00       1.22       1.54       0.00       1.54        0.46    47.42   0.364
  sub64                      4.22       0.00       0.00       0.63       1.47       0.00       1.47        0.45    37.62   0.349
  sub65                      4.22       0.00       0.00       0.55       1.49       0.00       1.49        0.46    38.09   0.353
  sub66                      4.22       0.00       0.00       1.22       1.30       0.00       1.30        0.40    34.76   0.308
  sub67                      4.22       0.00       0.00       0.34       2.05       0.00       2.05        0.63    66.77   0.485
  sub68                      4.22       0.00       0.00       0.59       1.83       0.00       1.83        0.56    56.12   0.433
  sub69                      4.22       0.00       0.00       0.63       2.03       0.00       2.03        0.47    56.16   0.481
  sub70                      4.22       2.07       0.00       2.14       2.33       0.00       2.33        0.53    41.69   0.371
  sub71                      4.22       0.00       0.00       0.34       1.71       0.00       1.71        0.40    35.83   0.406
  sub72                      4.22       0.00       0.00       0.30       1.13       0.00       1.13        0.23    16.13   0.269
  sub73                      4.22       2.27       0.00       2.20       2.26       0.00       2.26        0.53    35.55   0.349
  sub74                      4.22       0.00       0.00       3.16       0.62       0.00       0.62        0.25    31.41   0.146
  
  
  ******************
  Node Depth Summary
  ******************
  
  ---------------------------------------------------------------------------------
                                 Average  Maximum  Maximum  Time of Max    Reported
                                   Depth    Depth      HGL   Occurrence   Max Depth
  Node                 Type       Meters   Meters   Meters  days hr:min      Meters
  ---------------------------------------------------------------------------------
  WS02001211           JUNCTION     0.65     0.69     5.53     0  02:54        0.69
  WS02001212           JUNCTION     0.37     0.40     5.47     0  02:53        0.40
  WS02001213           JUNCTION     0.56     0.63     5.39     0  02:52        0.63
  WS02003069           JUNCTION     0.33     0.42     5.00     0  02:51        0.42
  WS02003072           JUNCTION     0.40     0.49     4.86     0  02:51        0.49
  WS02003073           JUNCTION     0.23     0.29     4.35     0  02:52        0.29
  WS02003060           JUNCTION     0.30     0.37     5.30     0  02:50        0.37
  WS02003066           JUNCTION     0.14     0.21     5.76     0  02:49        0.21
  WS02003059           JUNCTION     0.62     0.68     5.37     0  02:52        0.68
  WS02003067           JUNCTION     0.37     0.53     5.85     0  02:48        0.53
  WS02004401           JUNCTION     0.42     0.60     6.60     0  02:44        0.60
  WS02004402           JUNCTION     0.46     0.64     6.60     0  02:45        0.64
  WS02004403           JUNCTION     0.49     0.67     6.60     0  02:45        0.66
  WS02004404           JUNCTION     0.56     0.74     6.59     0  02:45        0.74
  WS02004406           JUNCTION     0.58     0.76     6.59     0  02:45        0.76
  WS02004409           JUNCTION     0.24     0.41     6.18     0  02:47        0.41
  WS02004410           JUNCTION     0.26     0.43     6.15     0  02:47        0.43
  WS02004411           JUNCTION     0.29     0.45     6.13     0  02:48        0.45
  WS02004412           JUNCTION     0.31     0.48     6.12     0  02:48        0.48
  WS02004413           JUNCTION     0.46     0.65     6.12     0  02:48        0.65
  WS02004405           JUNCTION     0.56     0.74     6.59     0  02:45        0.74
  WS02006109           JUNCTION     0.48     0.69     7.30     0  02:42        0.68
  WS02006110           JUNCTION     0.50     0.69     7.28     0  02:42        0.69
  WS02006111           JUNCTION     0.11     0.20     6.90     0  02:43        0.20
  WS02006112           JUNCTION     0.56     0.76     6.64     0  02:43        0.76
  WS02006113           JUNCTION     0.16     0.30     7.19     0  02:43        0.30
  WS02006115           JUNCTION     0.31     0.48     6.62     0  02:44        0.48
  WS02006116           JUNCTION     0.39     0.57     6.61     0  02:44        0.57
  WS02006230           JUNCTION     0.37     0.59     7.34     0  02:42        0.59
  WS02006231           JUNCTION     0.20     0.35     7.47     0  03:01        0.35
  WS02006232           JUNCTION     0.29     0.47     7.51     0  02:41        0.47
  WS02006234           JUNCTION     0.20     0.36     7.52     0  03:01        0.36
  WS02006235           JUNCTION     0.24     0.39     7.56     0  03:01        0.39
  WS02006238           JUNCTION     0.25     0.41     7.56     0  03:01        0.41
  WS02006240           JUNCTION     0.13     0.27     7.56     0  02:41        0.27
  WS02006242           JUNCTION     0.15     0.29     7.56     0  02:42        0.29
  WS02006243           JUNCTION     0.06     0.14     7.56     0  02:42        0.14
  WS02006245           JUNCTION     0.05     0.12     7.61     0  02:28        0.12
  WS02006247           JUNCTION     0.06     0.14     7.64     0  02:27        0.14
  WS02006248           JUNCTION     0.04     0.10     7.69     0  02:27        0.10
  WS02006249           JUNCTION     0.07     0.15     7.74     0  02:26        0.15
  WS02006239           JUNCTION     0.19     0.35     7.56     0  02:41        0.35
  WS02006251           JUNCTION     0.05     0.12     7.79     0  02:25        0.12
  WS02006252           JUNCTION     0.00     0.00     8.24     0  00:00        0.00
  WS02006253           JUNCTION     0.09     0.17     7.82     0  02:24        0.17
  WS02006256           JUNCTION     0.77     1.16     8.09     0  02:32        1.11
  WS02004138           JUNCTION     0.15     0.17     7.42     0  07:35        0.17
  WS02004407           JUNCTION     0.11     0.19     6.51     0  02:46        0.19
  WS02006228           JUNCTION     0.45     0.67     7.32     0  02:42        0.67
  WS02006229           JUNCTION     0.41     0.63     7.33     0  02:42        0.63
  WS02006280           JUNCTION     0.05     0.11     8.38     0  02:25        0.11
  WS02006284           JUNCTION     0.34     0.43     8.83     0  02:25        0.43
  WS02006287           JUNCTION     0.07     0.16     9.11     0  02:24        0.16
  WSF200               JUNCTION     0.10     0.18     5.41     0  02:49        0.18
  HS02004901           JUNCTION     0.10     0.18    10.01     0  02:22        0.18
  HS02004881           JUNCTION     0.01     0.02     9.05     0  02:24        0.02
  HS02004876           JUNCTION     0.03     0.08     9.11     0  02:24        0.08
  HS02004870           JUNCTION     0.01     0.03     9.31     0  02:24        0.03
  HS02004862           JUNCTION     0.01     0.03     9.42     0  02:26        0.03
  HS02004856           JUNCTION     0.07     0.09     9.52     0  02:25        0.09
  HS02004852           JUNCTION     0.01     0.02     9.53     0  02:26        0.02
  HS02004848           JUNCTION     0.01     0.02     9.62     0  02:23        0.02
  HS02004842           JUNCTION     0.33     0.35     9.62     0  02:23        0.35
  HS02004837           JUNCTION     0.03     0.04     9.62     0  02:23        0.04
  HS02004830           JUNCTION     0.04     0.05     9.52     0  02:23        0.05
  HS02004824           JUNCTION     0.02     0.03     9.43     0  02:27        0.03
  HS02004817           JUNCTION     0.42     0.48     9.33     0  02:25        0.48
  HS02004807           JUNCTION     0.11     0.16     9.33     0  02:25        0.16
  HS02004802           JUNCTION     0.14     0.20     9.33     0  02:25        0.20
  HS02004799           JUNCTION     0.10     0.19     9.41     0  02:23        0.19
  HS02004792           JUNCTION     0.02     0.07     9.59     0  02:22        0.07
  HS02004788           JUNCTION     0.02     0.05     9.95     0  02:23        0.05
  HS02004785           JUNCTION     0.03     0.10    10.00     0  02:23        0.10
  HS02004777           JUNCTION     0.13     0.21    10.01     0  02:23        0.21
  HS02004770           JUNCTION     0.10     0.18    10.01     0  02:23        0.18
  HS02004480           JUNCTION     0.06     0.15     9.39     0  02:23        0.15
  HS02004479           JUNCTION     0.10     0.18     9.39     0  02:23        0.18
  HS02004478           JUNCTION     0.05     0.09     9.32     0  02:24        0.09
  YS02001745           JUNCTION     0.12     0.39     7.91     0  07:50        0.39
  YS02001748           JUNCTION     0.36     0.83     7.91     0  07:50        0.83
  YS02001751           JUNCTION     0.52     1.03     7.91     0  07:50        1.03
  YS02001754           JUNCTION     0.75     1.30     7.91     0  07:50        1.30
  YS02001762           JUNCTION     0.94     1.51     7.91     0  07:50        1.51
  YS02001765           JUNCTION     0.90     1.46     7.91     0  07:50        1.46
  YS02001767           JUNCTION     0.86     1.42     7.91     0  07:50        1.42
  YS02001770           JUNCTION     0.86     1.41     7.91     0  07:50        1.41
  YS02001774           JUNCTION     0.92     1.49     7.91     0  07:50        1.49
  YS02001779           JUNCTION     0.69     1.22     7.91     0  07:49        1.22
  YS02001882           JUNCTION     0.23     0.33     7.05     0  03:01        0.33
  YS02001884           JUNCTION     0.32     0.43     7.05     0  03:01        0.43
  YS02001759           JUNCTION     0.97     1.55     7.91     0  07:50        1.55
  YS02001887           JUNCTION     0.40     0.51     7.05     0  03:00        0.51
  YS02001890           JUNCTION     0.43     0.54     7.05     0  03:01        0.54
  YS02001898           JUNCTION     0.20     0.30     7.03     0  03:01        0.30
  YS02001901           JUNCTION     0.31     0.42     7.03     0  03:02        0.42
  YS02001904           JUNCTION     0.29     0.40     7.03     0  03:02        0.40
  YS02001907           JUNCTION     0.62     0.74     7.03     0  03:01        0.74
  YS02001910           JUNCTION     0.41     0.52     7.03     0  03:01        0.52
  YS02001915           JUNCTION     0.22     0.31     7.03     0  03:01        0.31
  YS02001918           JUNCTION     0.06     0.07     7.14     0  03:04        0.07
  YS02001619           JUNCTION     0.48     0.98     7.91     0  07:50        0.98
  YS02001629           JUNCTION     0.81     1.36     7.91     0  07:50        1.36
  YS02001641           JUNCTION     0.91     1.47     7.91     0  07:50        1.47
  YS02001644           JUNCTION     0.91     1.48     7.91     0  07:50        1.48
  YS02001652           JUNCTION     0.77     1.31     7.91     0  07:50        1.31
  YS02001655           JUNCTION     0.55     1.06     7.91     0  07:50        1.06
  YS02001920           JUNCTION     0.15     0.17     7.17     0  03:03        0.17
  YS02001923           JUNCTION     0.05     0.06     7.32     0  03:02        0.06
  YS02001926           JUNCTION     0.11     0.14     7.58     0  03:02        0.14
  YS02001929           JUNCTION     0.05     0.06     7.76     0  03:01        0.06
  YS02001658           JUNCTION     0.31     0.77     7.91     0  07:50        0.77
  YS02001661           JUNCTION     0.20     0.51     7.91     0  07:50        0.51
  YS02001664           JUNCTION     0.06     0.09     8.01     0  02:55        0.09
  YS02001622           JUNCTION     0.50     1.01     7.91     0  07:50        1.01
  YS02001633           JUNCTION     0.90     1.46     7.91     0  07:50        1.46
  YS02001649           JUNCTION     0.95     1.52     7.91     0  07:50        1.52
  YS02001757           JUNCTION     1.07     1.65     7.91     0  07:50        1.65
  YS02001895           JUNCTION     0.20     0.29     7.04     0  03:00        0.29
  YS02001625           JUNCTION     0.77     1.31     7.91     0  07:50        1.31
  YS02163301           JUNCTION     0.84     1.39     7.91     0  07:50        1.39
  YS02163601           JUNCTION     0.95     1.51     7.91     0  07:50        1.51
  YS02164001           JUNCTION     0.89     1.45     7.91     0  07:50        1.45
  YS02001647           JUNCTION     0.75     1.30     7.91     0  07:50        1.30
  YSB1154              JUNCTION     0.23     0.33     9.39     0  02:23        0.33
  YSB6556              JUNCTION     0.13     0.22     9.39     0  02:24        0.22
  YSB1174              JUNCTION     0.18     0.28     9.39     0  02:23        0.28
  YSB1171              JUNCTION     0.38     0.48     9.39     0  02:24        0.48
  YS02006553           JUNCTION     0.62     0.75     7.03     0  03:01        0.75
  YS02006561           JUNCTION     0.11     0.16     6.82     0  03:01        0.16
  YS02006556           JUNCTION     0.60     0.72     7.03     0  03:01        0.72
  YS02006558           JUNCTION     0.64     0.76     7.03     0  03:01        0.76
  YS02001783           JUNCTION     0.18     0.29     6.43     0  03:02        0.29
  YS02001784           JUNCTION     0.22     0.32     6.39     0  03:01        0.32
  YS02001786           JUNCTION     0.19     0.27     6.30     0  03:02        0.27
  YS02001788           JUNCTION     0.13     0.20     6.17     0  03:02        0.20
  YS02001790           JUNCTION     0.16     0.24     5.88     0  03:02        0.24
  YS02001791           JUNCTION     0.11     0.16     5.63     0  03:02        0.16
  YS02001793           JUNCTION     0.14     0.62     5.45     0  03:09        0.57
  WS02004139           JUNCTION     0.59     0.64     5.55     0  02:54        0.64
  WSC                  OUTFALL      0.23     0.29     0.96     0  02:52        0.29
  3                    OUTFALL      0.06     0.13     6.13     0  02:32        0.10
  4                    OUTFALL      0.00     0.00     7.00     0  00:00        0.00
  5                    OUTFALL      0.00     0.00     5.00     0  00:00        0.00
  JK-storage           STORAGE      3.82     4.58     5.38     0  03:10        4.58
  CC-storage           STORAGE      0.39     0.91     7.91     0  07:50        0.91
  XR-storage           STORAGE      6.61     7.00     5.00     0  02:10        7.00
  
  
  *******************
  Node Inflow Summary
  *******************
  
  -------------------------------------------------------------------------------------------------
                                  Maximum  Maximum                  Lateral       Total        Flow
                                  Lateral    Total  Time of Max      Inflow      Inflow     Balance
                                   Inflow   Inflow   Occurrence      Volume      Volume       Error
  Node                 Type           LPS      LPS  days hr:min    10^6 ltr    10^6 ltr     Percent
  -------------------------------------------------------------------------------------------------
  WS02001211           JUNCTION      7.35   294.59     0  07:36       0.207        6.41       0.594
  WS02001212           JUNCTION      0.00   293.26     0  02:57           0        6.38       0.313
  WS02001213           JUNCTION      0.00   293.69     0  02:57           0        6.36       0.330
  WS02003069           JUNCTION      0.32   521.35     0  02:50     0.00902         8.5       0.242
  WS02003072           JUNCTION      0.00   521.31     0  02:51           0        8.48       0.320
  WS02003073           JUNCTION      1.82   523.21     0  02:52      0.0514        8.51       0.346
  WS02003060           JUNCTION     16.53   520.93     0  02:50       0.466        8.52       0.236
  WS02003066           JUNCTION      0.00   216.11     0  02:49           0        1.76       0.110
  WS02003059           JUNCTION      0.00   294.64     0  02:58           0        6.34       0.589
  WS02003067           JUNCTION      0.00   216.11     0  02:48           0        1.76       0.288
  WS02004401           JUNCTION      0.00   242.02     0  02:44           0        1.88       0.628
  WS02004402           JUNCTION      0.00   238.91     0  02:44           0        1.87       0.635
  WS02004403           JUNCTION      0.00   236.64     0  02:44           0        1.86       0.612
  WS02004404           JUNCTION      0.16   234.55     0  02:45     0.00457        1.85       0.510
  WS02004406           JUNCTION      0.00   232.48     0  02:45           0        1.83       1.240
  WS02004409           JUNCTION      0.00   230.76     0  02:46           0        1.81       0.264
  WS02004410           JUNCTION      0.00   227.54     0  02:46           0         1.8       0.373
  WS02004411           JUNCTION      0.00   223.82     0  02:47           0        1.79       0.440
  WS02004412           JUNCTION      0.00   220.98     0  02:47           0        1.79       0.554
  WS02004413           JUNCTION      0.00   217.99     0  02:47           0        1.78       0.939
  WS02004405           JUNCTION      0.04   233.42     0  02:45     0.00107        1.84       0.755
  WS02006109           JUNCTION      1.23   253.08     0  02:41      0.0347        1.92       0.560
  WS02006110           JUNCTION      0.00   252.90     0  02:42           0        1.91       0.530
  WS02006111           JUNCTION      0.00   253.52     0  02:43           0         1.9       0.051
  WS02006112           JUNCTION      5.02   254.30     0  02:43      0.0166        1.92       0.835
  WS02006113           JUNCTION      0.00   252.09     0  02:42           0         1.9       0.126
  WS02006115           JUNCTION      0.00   250.85     0  02:43           0         1.9       0.462
  WS02006116           JUNCTION      0.00   246.29     0  02:43           0        1.89       0.481
  WS02006230           JUNCTION     10.28   157.05     0  03:01        0.29        1.27       0.393
  WS02006231           JUNCTION      0.00   150.78     0  02:40           0       0.977      -0.151
  WS02006232           JUNCTION      0.00   154.90     0  02:38           0       0.983       0.651
  WS02006234           JUNCTION      0.00   155.27     0  02:37           0       0.975      -0.845
  WS02006235           JUNCTION      0.00   176.41     0  03:10           0         1.2       0.828
  WS02006238           JUNCTION      0.00   127.39     0  03:10           0       0.431      -0.105
  WS02006240           JUNCTION      0.00    55.16     0  02:51           0       0.238       0.547
  WS02006242           JUNCTION      0.00    44.56     0  02:52           0       0.154       0.751
  WS02006243           JUNCTION      0.00    21.55     0  02:28           0       0.102       0.110
  WS02006245           JUNCTION      0.00    21.55     0  02:28           0      0.0936       0.681
  WS02006247           JUNCTION      0.00    21.57     0  02:27           0      0.0937       0.123
  WS02006248           JUNCTION      0.00    21.58     0  02:26           0      0.0937       0.038
  WS02006249           JUNCTION      0.00    21.62     0  02:25           0      0.0941       0.369
  WS02006239           JUNCTION      0.00    75.63     0  02:51           0       0.335       0.010
  WS02006251           JUNCTION      0.08    21.65     0  02:24     0.00217      0.0941       0.086
  WS02006252           JUNCTION      0.00     0.00     0  00:00           0           0       0.000 ltr
  WS02006253           JUNCTION      0.77    21.59     0  02:23     0.00215      0.0921       0.164
  WS02006256           JUNCTION      0.00   300.00     0  02:32           0        1.83       0.604
  WS02004138           JUNCTION      0.00   285.00     0  02:10           0        6.24       0.061
  WS02004407           JUNCTION      0.00   231.17     0  02:45           0        1.81       0.122
  WS02006228           JUNCTION      0.00   252.72     0  02:42           0         1.9       0.377
  WS02006229           JUNCTION      0.00   254.19     0  02:40           0        1.91       0.540
  WS02006280           JUNCTION      0.00   117.83     0  02:25           0       0.644       0.012
  WS02006284           JUNCTION      0.10   117.83     0  02:25      0.0027       0.645       0.176
  WS02006287           JUNCTION      0.00   117.75     0  02:24           0       0.643       0.108
  WSF200               JUNCTION      0.00   216.08     0  02:49           0        1.75       0.082
  HS02004901           JUNCTION      6.22     6.22     0  02:14        0.02      0.0201       9.567
  HS02004881           JUNCTION      2.51    21.00     0  02:23      0.0087        0.09       0.066
  HS02004876           JUNCTION      3.99    18.70     0  02:23      0.0166      0.0818       0.638
  HS02004870           JUNCTION      4.43    14.79     0  02:23      0.0165      0.0653       0.163
  HS02004862           JUNCTION      3.72    10.66     0  02:24       0.022       0.049       0.340
  HS02004856           JUNCTION      3.28     6.97     0  02:23      0.0124      0.0285       5.315
  HS02004852           JUNCTION      0.00     3.90     0  02:24           0      0.0162       0.296
  HS02004848           JUNCTION      7.23     7.23     0  02:26      0.0388      0.0388       0.111
  HS02004842           JUNCTION      0.00     4.49     0  00:03           0      0.0356      57.511
  HS02004837           JUNCTION     13.44    16.61     0  02:22       0.208        0.23       0.344
  HS02004830           JUNCTION      0.15    16.75     0  02:23     0.00423       0.221       0.561
  HS02004824           JUNCTION      8.14    24.79     0  02:27      0.0509        0.27       0.200
  HS02004817           JUNCTION      0.60    25.39     0  02:27      0.0169       0.287       6.168
  HS02004807           JUNCTION      8.34    33.00     0  02:25      0.0303         0.3       1.427
  HS02004802           JUNCTION      0.00    33.08     0  02:27           0       0.296       1.391
  HS02004799           JUNCTION      6.41    72.17     0  02:22      0.0245       0.314       0.722
  HS02004792           JUNCTION     28.80    65.93     0  02:21        0.11        0.29       0.144
  HS02004788           JUNCTION     10.36    38.53     0  02:23      0.0811       0.182       0.213
  HS02004785           JUNCTION      0.15    28.52     0  02:22     0.00423       0.103       0.468
  HS02004777           JUNCTION      0.03    28.79     0  02:20    0.000846       0.103       5.294
  HS02004770           JUNCTION     24.31    29.67     0  02:18      0.0853       0.104       3.084
  HS02004480           JUNCTION      0.00    85.01     0  02:23           0       0.363       0.186
  HS02004479           JUNCTION      0.00    13.08     0  02:25           0      0.0608       1.212
  HS02004478           JUNCTION      0.00   117.75     0  02:24           0       0.644       0.102
  YS02001745           JUNCTION     39.69    58.22     0  05:51       0.468       0.484       1.149
  YS02001748           JUNCTION      0.04    73.96     0  05:51     0.00127       0.484       4.031
  YS02001751           JUNCTION      0.01    65.96     0  04:11     0.00031        0.45       5.522
  YS02001754           JUNCTION      0.26    59.79     0  03:14     0.00733       0.433       6.178
  YS02001762           JUNCTION      0.00    58.17     0  03:21           0       0.479       5.033
  YS02001765           JUNCTION      0.00    62.29     0  03:18           0       0.482       5.597
  YS02001767           JUNCTION      0.54    57.97     0  02:59      0.0151       0.504       7.794
  YS02001770           JUNCTION     51.79    59.20     0  04:20       0.561        0.58       6.159
  YS02001774           JUNCTION      0.00    32.57     0  04:20           0      0.0802      50.092
  YS02001779           JUNCTION      0.01    31.57     0  04:20    0.000141      0.0342      86.005
  YS02001882           JUNCTION      0.00     2.14     0  02:12           0     0.00347      71.033
  YS02001884           JUNCTION      0.00     6.51     0  02:08           0      0.0141      44.627
  YS02001759           JUNCTION     50.70   109.02     0  03:00       0.526       0.969       2.595
  YS02001887           JUNCTION     67.22    67.22     0  02:52       0.644        0.65       1.028
  YS02001890           JUNCTION      0.00    66.92     0  02:55           0       0.632       1.165
  YS02001898           JUNCTION      0.00    66.67     0  02:57           0       0.621       0.296
  YS02001901           JUNCTION      0.00    66.69     0  02:58           0       0.621       0.808
  YS02001904           JUNCTION      0.00    66.47     0  03:02           0        0.62       0.754
  YS02001907           JUNCTION      0.00   121.13     0  03:02           0        1.32       1.631
  YS02001910           JUNCTION      0.00    54.85     0  03:01           0        0.71       1.352
  YS02001915           JUNCTION     35.85    54.66     0  03:01       0.405       0.714       0.552
  YS02001918           JUNCTION      0.00    19.01     0  03:03           0        0.31       0.270
  YS02001619           JUNCTION     34.76    34.76     0  03:01       0.398       0.398       3.131
  YS02001629           JUNCTION      0.00    42.85     0  04:15           0       0.317       9.866
  YS02001641           JUNCTION      0.00    66.78     0  03:06           0       0.668       3.483
  YS02001644           JUNCTION     37.66   102.25     0  03:04       0.449        1.09       2.561
  YS02001652           JUNCTION      0.00    54.13     0  02:57           0       0.417       6.253
  YS02001655           JUNCTION      0.15    60.33     0  04:02     0.00434       0.441       5.932
  YS02001920           JUNCTION      2.87    19.02     0  03:02      0.0809       0.312       0.551
  YS02001923           JUNCTION      0.04    16.15     0  03:02     0.00106       0.231       0.097
  YS02001926           JUNCTION      0.05    16.17     0  03:01     0.00147       0.232       0.705
  YS02001929           JUNCTION     16.13    16.13     0  03:01       0.231       0.231       0.093
  YS02001658           JUNCTION      0.00    47.42     0  02:55           0       0.458       4.330
  YS02001661           JUNCTION      0.00    47.42     0  02:55           0       0.467       2.301
  YS02001664           JUNCTION     47.42    47.42     0  02:55       0.465       0.465       0.026
  YS02001622           JUNCTION      0.00    36.84     0  04:16           0       0.386       8.934
  YS02001633           JUNCTION     38.29    71.92     0  02:39       0.463        0.73       4.774
  YS02001649           JUNCTION      0.00   154.32     0  02:57           0        1.41       2.869
  YS02001757           JUNCTION      0.00   307.28     0  03:05           0        2.69       3.648
  YS02001895           JUNCTION      0.00    66.72     0  02:55           0       0.624       0.504
  YS02001625           JUNCTION      0.00    43.31     0  04:16           0       0.355      12.484
  YS02163301           JUNCTION      0.00    38.97     0  02:39           0       0.293       9.500
  YS02163601           JUNCTION      0.11    69.53     0  03:05      0.0031       0.696       4.719
  YS02164001           JUNCTION      0.00    69.26     0  03:03           0       0.673       3.465
  YS02001647           JUNCTION      0.00   102.39     0  03:04           0        1.05       2.917
  YSB1154              JUNCTION      7.10     7.10     0  02:20      0.0296       0.031       4.884
  YSB6556              JUNCTION      0.00     7.08     0  02:22           0      0.0321       4.030
  YSB1174              JUNCTION      7.09     7.09     0  02:14      0.0217      0.0228       5.984
  YSB1171              JUNCTION      0.00    13.08     0  02:22           0      0.0604      11.693
  YS02006553           JUNCTION      0.00   121.29     0  03:03           0        1.31       1.063
  YS02006561           JUNCTION      0.00   177.45     0  03:01           0        1.85       0.029
  YS02006556           JUNCTION      0.00   121.47     0  03:04           0        1.31       0.761
  YS02006558           JUNCTION     57.00   177.47     0  03:00       0.586        1.87       0.230
  YS02001783           JUNCTION      0.00   177.45     0  03:01           0        1.85       0.066
  YS02001784           JUNCTION      1.06   178.50     0  03:01      0.0299        1.88       0.111
  YS02001786           JUNCTION      0.06   178.55     0  03:01     0.00159        1.88       0.107
  YS02001788           JUNCTION      0.07   178.62     0  03:02       0.002        1.88       0.061
  YS02001790           JUNCTION      0.15   178.77     0  03:02     0.00437        1.88       0.078
  YS02001791           JUNCTION      0.00   178.76     0  03:02           0        1.88       0.032
  YS02001793           JUNCTION      0.00   350.34     0  03:12           0        1.89       0.122
  WS02004139           JUNCTION      0.32   286.36     0  07:35     0.00905        6.24       0.578
  WSC                  OUTFALL       0.00   523.08     0  02:52           0        8.48       0.000
  3                    OUTFALL       0.00   252.21     0  02:32           0       0.903       0.000
  4                    OUTFALL       0.00     0.00     0  00:00           0           0       0.000 ltr
  5                    OUTFALL       0.00     0.00     0  00:00           0           0       0.000 ltr
  JK-storage           STORAGE       0.00   682.68     0  02:53           0        2.04       0.440
  CC-storage           STORAGE       0.00   265.06     0  03:00           0        2.59       2.076
  XR-storage           STORAGE     265.04   265.04     0  03:01        6.42        7.02       0.000
  
  
  **********************
  Node Surcharge Summary
  **********************
  
  Surcharging occurs when water rises above the top of the highest conduit.
  ---------------------------------------------------------------------
                                               Max. Height   Min. Depth
                                   Hours       Above Crown    Below Rim
  Node                 Type      Surcharged         Meters       Meters
  ---------------------------------------------------------------------
  YS02001751           JUNCTION        0.37          0.031        1.169
  YS02001754           JUNCTION        2.36          0.252        0.898
  YS02001762           JUNCTION        3.88          0.509        0.641
  YS02001765           JUNCTION        3.62          0.459        0.641
  YS02001767           JUNCTION        3.44          0.420        0.610
  YS02001770           JUNCTION        3.22          0.384        0.536
  YS02001774           JUNCTION        3.77          0.487        0.563
  YS02001779           JUNCTION        2.13          0.223        0.457
  YS02001759           JUNCTION        4.06          0.546        0.664
  YS02001641           JUNCTION        3.70          0.473        0.627
  YS02001644           JUNCTION        3.72          0.478        0.442
  YS02001652           JUNCTION        2.60          0.284        0.846
  YS02001655           JUNCTION        0.69          0.059        1.141
  YS02001622           JUNCTION        0.07          0.006        0.614
  YS02001633           JUNCTION        3.51          0.436        0.624
  YS02001649           JUNCTION        3.93          0.520        0.530
  YS02001757           JUNCTION        4.54          0.649        0.561
  YS02001625           JUNCTION        2.74          0.306        0.474
  YS02163301           JUNCTION        3.28          0.393        0.637
  YS02163601           JUNCTION        3.89          0.512        0.568
  YS02164001           JUNCTION        3.59          0.452        0.648
  YS02001647           JUNCTION        2.71          0.300        0.600
  
  
  *********************
  Node Flooding Summary
  *********************
  
  No nodes were flooded.
  
  
  **********************
  Storage Volume Summary
  **********************
  
  --------------------------------------------------------------------------------------------------
                         Average     Avg  Evap Exfil       Maximum     Max    Time of Max    Maximum
                          Volume    Pcnt  Pcnt  Pcnt        Volume    Pcnt     Occurrence    Outflow
  Storage Unit           1000 m3    Full  Loss  Loss       1000 m3    Full    days hr:min        LPS
  --------------------------------------------------------------------------------------------------
  JK-storage               0.192      66     0     0         0.230      79       0  03:10     468.79
  CC-storage               1.095       7     0     0         2.534      16       0  07:50       0.00
  XR-storage               0.794      86     0     0         0.840      91       0  02:10     285.00
  
  
  ***********************
  Outfall Loading Summary
  ***********************
  
  -----------------------------------------------------------
                         Flow       Avg       Max       Total
                         Freq      Flow      Flow      Volume
  Outfall Node           Pcnt       LPS       LPS    10^6 ltr
  -----------------------------------------------------------
  WSC                   99.99    350.03    523.08       8.479
  3                     59.03    151.98    252.21       0.903
  4                      0.00      0.00      0.00       0.000
  5                      0.00      0.00      0.00       0.000
  -----------------------------------------------------------
  System                39.76    502.02    747.54       9.382
  
  
  ********************
  Link Flow Summary
  ********************
  
  -----------------------------------------------------------------------------
                                 Maximum  Time of Max   Maximum    Max/    Max/
                                  |Flow|   Occurrence   |Veloc|    Full    Full
  Link                 Type          LPS  days hr:min     m/sec    Flow   Depth
  -----------------------------------------------------------------------------
  WS02003066WSF200     CONDUIT    216.08     0  02:49      2.25    0.04    0.14
  WS02006287WS02006284 CONDUIT    117.73     0  02:25      1.33    0.05    0.17
  WS02006284WS02006280 CONDUIT    117.83     0  02:25      1.58    0.05    0.15
  WS02006280WS02006229 CONDUIT    117.83     0  02:25      2.53    0.03    0.11
  WS02006229WS02006228 CONDUIT    252.72     0  02:42      0.60    0.84    0.79
  WS02006256WS02006235 CONDUIT    166.35     0  04:31      2.56    1.76    1.00
  WS02006253WS02006251 CONDUIT     21.57     0  02:24      0.39    0.06    0.20
  WS02006252WS02006251 CONDUIT      0.00     0  00:00      0.00    0.00    0.00
  WS02006251WS02006249 CONDUIT     21.62     0  02:25      0.43    0.06    0.19
  WS02006249WS02006248 CONDUIT     21.58     0  02:26      0.51    0.12    0.17
  WS02006248WS02006247 CONDUIT     21.57     0  02:27      0.51    0.05    0.17
  WS02006247WS02006245 CONDUIT     21.55     0  02:28      0.45    0.17    0.18
  WS02006245WS02006243 CONDUIT     21.55     0  02:28      0.58    0.06    0.18
  WS02006243WS02006242 CONDUIT     30.96     0  02:44      0.46    0.07    0.29
  WS02006242WS02006240 CONDUIT     45.09     0  02:43      0.50    0.18    0.39
  WS02006240WS02006239 CONDUIT     61.84     0  02:43      0.58    0.19    0.41
  WS02006239WS02006238 CONDUIT     89.80     0  02:42      0.66    0.29    0.53
  WS02006238WS02006235 CONDUIT    126.53     0  02:42      1.07    0.28    0.57
  WS02006235WS02006234 CONDUIT    155.27     0  02:37      0.94    1.64    0.52
  WS02006234WS02006232 CONDUIT    154.90     0  02:38      0.83    0.31    0.60
  WS02006232WS02006231 CONDUIT    150.78     0  02:40      0.68    0.32    0.57
  WS02006231WS02006230 CONDUIT    146.77     0  03:01      0.97    2.23    0.41
  WS02006230WS02006229 CONDUIT    157.14     0  03:01      0.51    3.50    0.84
  WS02006228WS02006109 CONDUIT    251.85     0  02:41      0.57    1.10    0.83
  WS02006116WS02004401 CONDUIT    242.02     0  02:44      0.51    0.33    0.59
  WS02006115WS02006116 CONDUIT    246.29     0  02:43      0.64    0.32    0.50
  WS02006113WS02006111 CONDUIT    253.52     0  02:43      1.91    0.30    0.31
  WS02006112WS02006115 CONDUIT    250.85     0  02:43      0.50    0.15    0.62
  WS02006111WS02006112 CONDUIT    251.52     0  02:43      0.84    0.12    0.58
  WS02006110WS02006113 CONDUIT    252.09     0  02:42      0.77    0.23    0.62
  WS02006109WS02006110 CONDUIT    252.90     0  02:42      0.59    0.49    0.79
  WS02004411WS02004412 CONDUIT    220.98     0  02:47      0.75    0.31    0.47
  WS02004401WS02004402 CONDUIT    238.91     0  02:44      0.47    0.29    0.62
  WS02004413WS02003067 CONDUIT    216.11     0  02:48      0.68    0.09    0.43
  WS02004412WS02004413 CONDUIT    217.99     0  02:47      0.68    0.15    0.56
  WS02004410WS02004411 CONDUIT    223.82     0  02:47      0.67    0.31    0.44
  WS02004409WS02004410 CONDUIT    227.54     0  02:46      0.73    0.29    0.42
  WS02004407WS02004409 CONDUIT    230.76     0  02:46      1.17    0.08    0.30
  WS02004406WS02004407 CONDUIT    231.17     0  02:45      0.63    0.10    0.48
  WS02004405WS02004406 CONDUIT    232.48     0  02:45      0.37    0.46    0.75
  WS02004404WS02004405 CONDUIT    233.38     0  02:45      0.37    2.29    0.74
  WS02004403WS02004404 CONDUIT    234.39     0  02:45      0.40    0.17    0.70
  WS02004402WS02004403 CONDUIT    236.64     0  02:44      0.44    0.34    0.65
  WS02004139WS02001211 CONDUIT    287.24     0  07:36      0.54    0.36    0.51
  WS02004138WS02004139 CONDUIT    286.04     0  07:35      2.39    0.06    0.38
  WS02003067WS02003066 CONDUIT    216.11     0  02:49      0.73    0.07    0.31
  WS02001213WS02003059 CONDUIT    294.64     0  02:58      0.59    0.49    0.64
  WS02001212WS02001213 CONDUIT    293.69     0  02:57      1.19    0.45    0.36
  WS02001211WS02001212 CONDUIT    293.26     0  02:57      0.67    0.22    0.55
  WS02003072WS02003073 CONDUIT    521.39     0  02:52      1.40    1.13    0.36
  WS02003069WS02003072 CONDUIT    521.31     0  02:51      1.34    0.25    0.38
  WS02003060WS02003069 CONDUIT    521.03     0  02:50      1.62    0.20    0.33
  WS02003059WS02003060 CONDUIT    296.00     0  02:58      0.82    0.19    0.53
  HS02004901HS02004770 CONDUIT      5.61     0  02:20      0.03    0.02    0.26
  HS02004876HS02004881 CONDUIT     18.70     0  02:24      0.37    0.20    0.07
  HS02004870HS02004876 CONDUIT     14.78     0  02:24      0.26    0.01    0.08
  HS02004842HS02004848 CONDUIT      3.52     0  02:36      0.02    0.00    0.26
  HS02004837HS02004842 CONDUIT      4.49     0  00:03      0.42    0.00    0.28
  HS02004830HS02004837 CONDUIT     16.60     0  02:23      0.38    0.02    0.06
  HS02004824HS02004830 CONDUIT     16.75     0  02:24      0.42    0.02    0.06
  HS02004817HS02004824 CONDUIT     24.79     0  02:27      0.17    0.01    0.37
  HS02004770HS02004777 CONDUIT     28.76     0  02:20      0.15    0.05    0.27
  HS02004799HS02004480 CONDUIT     72.05     0  02:22      0.44    0.09    0.24
  HS02004792HS02004799 CONDUIT     65.90     0  02:22      0.51    0.04    0.19
  HS02004788HS02004792 CONDUIT     38.50     0  02:23      0.67    0.03    0.08
  HS02004785HS02004788 CONDUIT     28.42     0  02:23      0.39    0.21    0.10
  HS02004777HS02004785 CONDUIT     28.37     0  02:22      0.19    0.03    0.22
  HS02004480HS02004478 CONDUIT     84.97     0  02:23      0.75    0.36    0.16
  HS02004479HS02004480 CONDUIT     13.17     0  02:25      0.15    0.01    0.23
  HS02004862HS02004870 CONDUIT     10.63     0  02:25      0.36    0.01    0.04
  HS02004848HS02004852 CONDUIT      3.90     0  02:24      0.23    0.00    0.02
  HS02004856HS02004862 CONDUIT      6.95     0  02:25      0.26    0.01    0.04
  HS02004852HS02004856 CONDUIT      3.87     0  02:26      0.07    0.00    0.08
  HS02004802HS02004478 CONDUIT     33.22     0  02:28      0.23    0.03    0.21
  HS02004478WS02006287 CONDUIT    117.75     0  02:24      1.02    0.03    0.13
  HS02004817HS02004807 CONDUIT     25.61     0  02:29      0.08    0.02    0.46
  HS02004807HS02004802 CONDUIT     33.08     0  02:27      0.19    0.06    0.25
  YS02001759YS02001757 CONDUIT    103.33     0  03:00      0.14    0.07    1.00
  YS02001762YS02001759 CONDUIT     61.05     0  03:22      0.17    0.07    1.00
  YS02001765YS02001762 CONDUIT     58.17     0  03:21      0.22    0.05    1.00
  YS02001770YS02001767 CONDUIT     57.43     0  02:59      0.29    0.23    1.00
  YS02001774YS02001770 CONDUIT     32.57     0  04:20      0.11    0.02    1.00
  YS02001779YS02001774 CONDUIT     31.56     0  04:20      0.06    0.02    1.00
  YS02001649YS02001757 CONDUIT    151.01     0  02:56      0.21    0.09    1.00
  YS02001767YS02001765 CONDUIT     62.29     0  03:18      0.25    0.08    1.00
  YS02006561YS02001783 CONDUIT    177.45     0  03:01      1.54    0.09    0.28
  YS02001783YS02001784 CONDUIT    177.44     0  03:01      1.02    0.24    0.38
  YS02001784YS02001785 CONDUIT    178.49     0  03:01      1.07    0.42    0.37
  YS02001788YS02001790 CONDUIT    178.61     0  03:02      1.61    0.13    0.27
  YS02001790YS02001791 CONDUIT    178.76     0  03:02      1.89    0.19    0.25
  YS02001791YS02001793 CONDUIT    189.25     0  03:06      3.69    0.08    0.48
  YS02001910YS02001907 CONDUIT     54.80     0  03:04      0.49    0.03    0.63
  YS02001786YS02001788 CONDUIT    178.55     0  03:02      1.47    0.34    0.29
  YS02001915YS02001910 CONDUIT     54.85     0  03:01      0.44    0.03    0.42
  YS02001918YS02001915 CONDUIT     19.00     0  03:04      0.44    0.01    0.19
  YS02001923YS02001920 CONDUIT     16.15     0  03:02      0.33    0.01    0.11
  YS02001926YS02001923 CONDUIT     16.12     0  03:02      0.39    0.02    0.10
  YS02001929YS02001926 CONDUIT     16.12     0  03:01      0.40    0.01    0.10
  YS02001920YS02001918 CONDUIT     19.01     0  03:03      0.36    0.02    0.12
  YS02001629YS02163301 CONDUIT     38.97     0  02:39      0.09    0.05    1.00
  YS02001619YS02001622 CONDUIT     36.84     0  04:16      0.55    0.05    0.99
  YS02001622YS02001625 CONDUIT     36.02     0  04:16      0.18    0.02    1.00
  YS02001625YS02001629 CONDUIT     42.85     0  04:15      0.18    0.02    0.99
  YS02163301YS02001633 CONDUIT     37.25     0  02:39      0.08    0.04    1.00
  YS02163601YS02164001 CONDUIT     69.26     0  03:03      0.11    0.06    1.00
  YS02164001YS02001641 CONDUIT     66.78     0  03:06      0.10    0.09    1.00
  YS02001641YS02001644 CONDUIT     65.31     0  03:04      0.12    0.21    1.00
  YS02001647YS02001649 CONDUIT    104.24     0  03:04      0.17    0.06    1.00
  YS02006553YS02006556 CONDUIT    121.47     0  03:04      0.20    0.10    0.71
  YS02006556YS02006558 CONDUIT    121.57     0  03:04      0.20    0.10    0.74
  YSB6556YSB1171       CONDUIT      7.13     0  02:26      0.04    0.01    0.50
  YS02001907YS02006553 CONDUIT    121.29     0  03:03      0.17    0.14    0.81
  YS02006558YS02006561 CONDUIT    177.45     0  03:01      1.98    0.39    0.35
  YS02001633YS02163601 CONDUIT     69.42     0  03:05      0.12    0.07    1.00
  YS02001644YS02001647 CONDUIT    102.39     0  03:04      0.18    0.06    1.00
  YS02001745YS02001748 CONDUIT     73.91     0  05:51      1.21    0.03    0.57
  YS02001748YS02001751 CONDUIT     65.94     0  04:11      0.94    0.03    0.92
  YS02001751YS02001754 CONDUIT     59.37     0  03:14      0.86    0.03    1.00
  YS02001754YS02001757 CONDUIT     70.28     0  03:15      0.33    0.03    1.00
  YS02001882YS02001884 CONDUIT      2.14     0  02:12      0.05    0.00    0.35
  YS02001884YS02001887 CONDUIT      6.51     0  02:08      0.05    0.01    0.45
  YS02001890YS02001895 CONDUIT     66.72     0  02:55      0.22    0.03    0.42
  YS02001895YS02001898 CONDUIT     66.67     0  02:57      0.42    0.12    0.28
  YS02001898YS02001901 CONDUIT     66.69     0  02:58      0.26    0.04    0.36
  YS02001901YS02001904 CONDUIT     66.47     0  03:02      0.22    0.10    0.41
  YS02001904YS02001907 CONDUIT     66.67     0  03:02      0.14    0.02    0.57
  YS02001887YS02001890 CONDUIT     66.92     0  02:55      0.17    0.11    0.50
  YS02001652YS02001649 CONDUIT     59.30     0  03:17      0.26    0.03    1.00
  YS02001655YS02001652 CONDUIT     54.13     0  02:57      0.91    0.03    1.00
  YS02001658YS02001655 CONDUIT     60.18     0  04:02      1.08    0.03    0.88
  YS02001661YS02001658 CONDUIT     47.42     0  02:55      1.22    0.02    0.60
  YS02001664YS02001661 CONDUIT     47.42     0  02:55      0.84    0.01    0.27
  YSB1154YSB6556       CONDUIT      7.08     0  02:22      0.19    0.01    0.39
  YSB1174YSB1171       CONDUIT      6.63     0  02:15      0.04    0.01    0.51
  YSB1171HS02004479    CONDUIT     13.08     0  02:25      0.54    0.01    0.39
  HS02004881HS02006253 CONDUIT     21.00     0  02:24      1.31    0.00    0.02
  YS02001793JiankangQianchi CONDUIT    682.68     0  02:53      1.45    0.05    0.81
  YS02001757CaochengTiaoxuchi CONDUIT    265.06     0  03:00      0.63    0.12    0.95
  WSF200WS02003060     CONDUIT    216.04     0  02:49      1.20    0.05    0.23
  1                    CONDUIT    523.08     0  02:52      2.78    0.18    0.29
  2                    CONDUIT      0.00     0  00:00      0.00    0.00    0.00
  3                    CONDUIT    252.21     0  02:32      8.31    0.40    0.47
  4                    CONDUIT      0.00     0  00:00      0.00    0.00    0.00
  CC-Pump-1            PUMP         0.00     0  00:00              0.00
  CC-Pump-2            PUMP         0.00     0  00:00              0.00
  JK-Pump-1            PUMP       300.00     0  02:32              1.00
  JK-Pump-2            PUMP         0.00     0  00:00              0.00
  XR-Pump-1            PUMP        95.00     0  00:00              1.00
  XR-Pump-2            PUMP        95.00     0  00:25              1.00
  XR-Pump-3            PUMP        95.00     0  02:10              1.00
  XR-Pump-4            PUMP         0.00     0  00:00              0.00
  
  
  ***************************
  Flow Classification Summary
  ***************************
  
  -------------------------------------------------------------------------------------
                      Adjusted    ---------- Fraction of Time in Flow Class ---------- 
                       /Actual         Up    Down  Sub   Sup   Up    Down  Norm  Inlet 
  Conduit               Length    Dry  Dry   Dry   Crit  Crit  Crit  Crit  Ltd   Ctrl  
  -------------------------------------------------------------------------------------
  WS02003066WSF200        1.00   0.16  0.00  0.00  0.00  0.84  0.00  0.00  0.68  0.00
  WS02006287WS02006284    1.00   0.04  0.04  0.00  0.63  0.29  0.00  0.00  0.81  0.00
  WS02006284WS02006280    1.00   0.06  0.00  0.00  0.00  0.00  0.00  0.94  0.00  0.00
  WS02006280WS02006229    1.00   0.06  0.00  0.00  0.00  0.00  0.00  0.94  0.00  0.00
  WS02006229WS02006228    1.00   0.00  0.00  0.00  1.00  0.00  0.00  0.00  0.00  0.00
  WS02006256WS02006235    1.00   0.09  0.00  0.00  0.84  0.07  0.00  0.00  0.05  0.00
  WS02006253WS02006251    1.00   0.02  0.03  0.00  0.95  0.00  0.01  0.00  0.00  0.00
  WS02006252WS02006251    1.00   1.00  0.00  0.00  0.00  0.00  0.00  0.00  0.00  0.00
  WS02006251WS02006249    1.00   0.00  0.00  0.00  1.00  0.00  0.00  0.00  0.98  0.00
  WS02006249WS02006248    1.00   0.00  0.01  0.00  0.00  0.00  0.99  0.00  0.00  0.00
  WS02006248WS02006247    1.00   0.01  0.00  0.00  0.97  0.00  0.00  0.02  0.87  0.00
  WS02006247WS02006245    1.00   0.01  0.00  0.00  0.95  0.00  0.00  0.04  0.00  0.00
  WS02006245WS02006243    1.00   0.01  0.00  0.00  0.84  0.00  0.00  0.14  0.11  0.00
  WS02006243WS02006242    1.00   0.02  0.00  0.00  0.93  0.00  0.00  0.06  0.60  0.00
  WS02006242WS02006240    1.00   0.02  0.05  0.00  0.92  0.00  0.01  0.00  0.01  0.00
  WS02006240WS02006239    1.00   0.08  0.00  0.00  0.77  0.00  0.00  0.15  0.09  0.00
  WS02006239WS02006238    1.00   0.08  0.00  0.00  0.91  0.00  0.00  0.02  0.05  0.00
  WS02006238WS02006235    1.00   0.08  0.01  0.00  0.91  0.00  0.00  0.00  0.00  0.00
  WS02006235WS02006234    1.00   0.10  0.01  0.00  0.78  0.00  0.11  0.00  0.00  0.00
  WS02006234WS02006232    1.00   0.11  0.00  0.00  0.89  0.00  0.00  0.00  0.02  0.00
  WS02006232WS02006231    1.00   0.11  0.03  0.00  0.84  0.00  0.02  0.00  0.00  0.00
  WS02006231WS02006230    1.00   0.13  0.00  0.00  0.03  0.00  0.84  0.00  0.00  0.00
  WS02006230WS02006229    1.00   0.00  0.00  0.00  0.99  0.00  0.00  0.01  0.03  0.00
  WS02006228WS02006109    1.00   0.00  0.00  0.00  1.00  0.00  0.00  0.00  0.00  0.00
  WS02006116WS02004401    1.00   0.05  0.00  0.00  0.95  0.00  0.00  0.00  0.01  0.00
  WS02006115WS02006116    1.00   0.05  0.00  0.00  0.91  0.00  0.00  0.05  0.00  0.00
  WS02006113WS02006111    1.00   0.03  0.00  0.00  0.01  0.96  0.00  0.00  0.10  0.00
  WS02006112WS02006115    1.00   0.03  0.02  0.00  0.95  0.00  0.00  0.00  0.00  0.00
  WS02006111WS02006112    1.00   0.03  0.00  0.00  0.96  0.00  0.00  0.00  0.92  0.00
  WS02006110WS02006113    1.00   0.00  0.02  0.00  0.97  0.00  0.00  0.00  0.00  0.00
  WS02006109WS02006110    1.00   0.00  0.00  0.00  0.99  0.00  0.01  0.00  0.00  0.00
  WS02004411WS02004412    1.00   0.12  0.00  0.00  0.88  0.00  0.00  0.00  0.00  0.00
  WS02004401WS02004402    1.00   0.05  0.00  0.00  0.95  0.00  0.00  0.00  0.04  0.00
  WS02004413WS02003067    1.00   0.13  0.02  0.00  0.00  0.00  0.85  0.00  0.00  0.00
  WS02004412WS02004413    1.00   0.13  0.00  0.00  0.87  0.00  0.00  0.00  0.01  0.00
  WS02004410WS02004411    1.00   0.12  0.00  0.00  0.88  0.00  0.00  0.00  0.00  0.00
  WS02004409WS02004410    1.00   0.12  0.00  0.00  0.88  0.00  0.00  0.00  0.00  0.00
  WS02004407WS02004409    1.00   0.12  0.00  0.00  0.87  0.01  0.00  0.00  0.72  0.00
  WS02004406WS02004407    1.00   0.00  0.12  0.00  0.88  0.00  0.00  0.00  0.00  0.00
  WS02004405WS02004406    1.00   0.00  0.00  0.00  1.00  0.00  0.00  0.00  0.04  0.00
  WS02004404WS02004405    1.00   0.00  0.00  0.00  1.00  0.00  0.00  0.00  0.01  0.00
  WS02004403WS02004404    1.00   0.00  0.05  0.00  0.95  0.00  0.00  0.00  0.04  0.00
  WS02004402WS02004403    1.00   0.05  0.00  0.00  0.95  0.00  0.00  0.00  0.00  0.00
  WS02004139WS02001211    1.00   0.00  0.00  0.00  1.00  0.00  0.00  0.00  0.00  0.00
  WS02004138WS02004139    1.00   0.00  0.00  0.00  1.00  0.00  0.00  0.00  1.00  0.00
  WS02003067WS02003066    1.00   0.15  0.01  0.00  0.85  0.00  0.00  0.00  0.00  0.00
  WS02001213WS02003059    1.00   0.00  0.00  0.00  1.00  0.00  0.00  0.00  0.00  0.00
  WS02001212WS02001213    1.00   0.00  0.00  0.00  0.07  0.00  0.92  0.00  0.00  0.00
  WS02001211WS02001212    1.00   0.00  0.00  0.00  1.00  0.00  0.00  0.00  0.00  0.00
  WS02003072WS02003073    1.00   0.00  0.00  0.00  0.00  0.00  0.00  1.00  0.00  0.00
  WS02003069WS02003072    1.00   0.00  0.00  0.00  1.00  0.00  0.00  0.00  0.71  0.00
  WS02003060WS02003069    1.00   0.00  0.00  0.00  0.99  0.01  0.00  0.00  0.40  0.00
  WS02003059WS02003060    1.00   0.00  0.00  0.00  1.00  0.00  0.00  0.00  0.02  0.00
  HS02004901HS02004770    1.00   0.06  0.00  0.00  0.94  0.00  0.00  0.00  0.03  0.00
  HS02004876HS02004881    1.00   0.01  0.00  0.00  0.99  0.00  0.00  0.00  0.00  0.00
  HS02004870HS02004876    1.00   0.00  0.00  0.00  0.99  0.00  0.00  0.00  0.95  0.00
  HS02004842HS02004848    1.00   0.00  0.06  0.00  0.94  0.00  0.00  0.00  0.71  0.00
  HS02004837HS02004842    1.00   0.00  0.00  0.00  1.00  0.00  0.00  0.00  0.11  0.00
  HS02004830HS02004837    1.00   0.00  0.00  0.00  1.00  0.00  0.00  0.00  0.99  0.00
  HS02004824HS02004830    1.00   0.00  0.00  0.00  1.00  0.00  0.00  0.00  0.00  0.00
  HS02004817HS02004824    1.00   0.00  0.00  0.00  1.00  0.00  0.00  0.00  1.00  0.00
  HS02004770HS02004777    1.00   0.00  0.06  0.00  0.94  0.00  0.00  0.00  0.07  0.00
  HS02004799HS02004480    1.00   0.00  0.01  0.00  0.91  0.00  0.07  0.00  0.00  0.00
  HS02004792HS02004799    1.00   0.00  0.00  0.00  1.00  0.00  0.00  0.00  0.98  0.00
  HS02004788HS02004792    1.00   0.00  0.00  0.00  1.00  0.00  0.00  0.00  0.98  0.00
  HS02004785HS02004788    1.00   0.00  0.00  0.00  1.00  0.00  0.00  0.00  0.00  0.00
  HS02004777HS02004785    1.00   0.00  0.00  0.00  1.00  0.00  0.00  0.00  0.21  0.00
  HS02004480HS02004478    1.00   0.06  0.00  0.00  0.65  0.00  0.00  0.29  0.00  0.00
  HS02004479HS02004480    1.00   0.02  0.00  0.00  0.98  0.00  0.00  0.00  0.16  0.00
  HS02004862HS02004870    1.00   0.00  0.00  0.00  1.00  0.00  0.00  0.00  0.06  0.00
  HS02004848HS02004852    1.00   0.06  0.00  0.00  0.94  0.00  0.00  0.00  0.69  0.00
  HS02004856HS02004862    1.00   0.00  0.12  0.00  0.88  0.00  0.00  0.00  0.73  0.00
  HS02004852HS02004856    1.00   0.06  0.02  0.00  0.93  0.00  0.00  0.00  0.83  0.00
  HS02004802HS02004478    1.00   0.06  0.01  0.00  0.93  0.00  0.00  0.00  0.01  0.00
  HS02004478WS02006287    1.00   0.08  0.00  0.00  0.92  0.00  0.00  0.00  0.81  0.00
  HS02004817HS02004807    1.00   0.00  0.06  0.00  0.94  0.00  0.00  0.00  0.00  0.00
  HS02004807HS02004802    1.00   0.06  0.00  0.00  0.94  0.00  0.00  0.01  0.01  0.00
  YS02001759YS02001757    1.00   0.00  0.00  0.00  1.00  0.00  0.00  0.00  0.17  0.00
  YS02001762YS02001759    1.00   0.00  0.00  0.00  1.00  0.00  0.00  0.00  0.05  0.00
  YS02001765YS02001762    1.00   0.00  0.00  0.00  1.00  0.00  0.00  0.00  0.23  0.00
  YS02001770YS02001767    1.00   0.00  0.00  0.00  1.00  0.00  0.00  0.00  0.00  0.00
  YS02001774YS02001770    1.00   0.00  0.08  0.00  0.92  0.00  0.00  0.00  0.07  0.00
  YS02001779YS02001774    1.00   0.00  0.00  0.00  1.00  0.00  0.00  0.00  0.28  0.00
  YS02001649YS02001757    1.00   0.00  0.00  0.00  1.00  0.00  0.00  0.00  0.19  0.00
  YS02001767YS02001765    1.00   0.00  0.00  0.00  1.00  0.00  0.00  0.00  0.01  0.00
  YS02006561YS02001783    1.00   0.12  0.00  0.00  0.00  0.88  0.00  0.00  0.72  0.00
  YS02001783YS02001784    1.00   0.00  0.12  0.00  0.88  0.00  0.00  0.00  0.09  0.00
  YS02001784YS02001785    1.00   0.00  0.00  0.00  1.00  0.00  0.00  0.00  0.26  0.00
  YS02001788YS02001790    1.00   0.00  0.00  0.00  0.12  0.88  0.00  0.00  0.99  0.00
  YS02001790YS02001791    1.00   0.00  0.00  0.00  0.01  0.99  0.00  0.00  0.36  0.00
  YS02001791YS02001793    1.00   0.00  0.00  0.00  0.19  0.81  0.00  0.00  0.25  0.00
  YS02001910YS02001907    1.00   0.00  0.00  0.00  0.99  0.00  0.00  0.01  0.13  0.00
  YS02001786YS02001788    1.00   0.00  0.00  0.00  0.13  0.87  0.00  0.00  0.00  0.00
  YS02001915YS02001910    1.00   0.00  0.00  0.00  0.99  0.01  0.00  0.00  0.25  0.00
  YS02001918YS02001915    1.00   0.00  0.00  0.00  0.99  0.01  0.00  0.00  0.81  0.00
  YS02001923YS02001920    1.00   0.00  0.00  0.00  1.00  0.00  0.00  0.00  1.00  0.00
  YS02001926YS02001923    1.00   0.00  0.03  0.00  0.00  0.00  0.97  0.00  0.00  0.00
  YS02001929YS02001926    1.00   0.00  0.06  0.00  0.94  0.00  0.00  0.00  0.87  0.00
  YS02001920YS02001918    1.00   0.00  0.00  0.00  1.00  0.00  0.00  0.00  0.00  0.00
  YS02001629YS02163301    1.00   0.10  0.01  0.00  0.89  0.00  0.00  0.00  0.00  0.00
  YS02001619YS02001622    1.00   0.06  0.00  0.00  0.94  0.00  0.00  0.00  0.00  0.00
  YS02001622YS02001625    1.00   0.06  0.00  0.00  0.94  0.00  0.00  0.00  0.14  0.00
  YS02001625YS02001629    1.00   0.06  0.07  0.00  0.84  0.00  0.03  0.00  0.00  0.00
  YS02163301YS02001633    1.00   0.00  0.10  0.00  0.90  0.00  0.00  0.00  0.00  0.00
  YS02163601YS02164001    1.00   0.00  0.03  0.00  0.97  0.00  0.00  0.00  0.00  0.00
  YS02164001YS02001641    1.00   0.00  0.03  0.00  0.97  0.00  0.00  0.00  0.07  0.00
  YS02001641YS02001644    1.00   0.00  0.00  0.00  1.00  0.00  0.00  0.00  0.00  0.00
  YS02001647YS02001649    1.00   0.00  0.12  0.00  0.88  0.00  0.00  0.00  0.01  0.00
  YS02006553YS02006556    1.00   0.01  0.00  0.00  0.99  0.00  0.00  0.00  0.03  0.00
  YS02006556YS02006558    1.00   0.00  0.00  0.00  1.00  0.00  0.00  0.00  0.00  0.00
  YSB6556YSB1171          1.00   0.02  0.04  0.00  0.95  0.00  0.00  0.00  0.00  0.00
  YS02001907YS02006553    1.00   0.00  0.01  0.00  0.99  0.00  0.00  0.00  0.00  0.00
  YS02006558YS02006561    1.00   0.12  0.00  0.00  0.00  0.88  0.00  0.00  0.71  0.00
  YS02001633YS02163601    1.00   0.00  0.00  0.00  1.00  0.00  0.00  0.00  0.20  0.00
  YS02001644YS02001647    1.00   0.00  0.12  0.00  0.88  0.00  0.00  0.00  0.00  0.00
  YS02001745YS02001748    1.00   0.00  0.00  0.00  0.61  0.06  0.00  0.32  0.23  0.00
  YS02001748YS02001751    1.00   0.00  0.00  0.00  0.94  0.06  0.00  0.00  0.28  0.00
  YS02001751YS02001754    1.00   0.00  0.00  0.00  0.87  0.00  0.00  0.13  0.03  0.00
  YS02001754YS02001757    1.00   0.00  0.00  0.00  1.00  0.00  0.00  0.00  0.27  0.00
  YS02001882YS02001884    1.00   0.09  0.01  0.00  0.90  0.00  0.00  0.00  0.00  0.00
  YS02001884YS02001887    1.00   0.03  0.02  0.00  0.95  0.00  0.00  0.00  0.00  0.00
  YS02001890YS02001895    1.00   0.00  0.10  0.00  0.90  0.00  0.00  0.00  0.00  0.00
  YS02001895YS02001898    1.00   0.10  0.00  0.00  0.88  0.00  0.02  0.00  0.00  0.00
  YS02001898YS02001901    1.00   0.10  0.01  0.00  0.89  0.00  0.00  0.00  0.02  0.00
  YS02001901YS02001904    1.00   0.10  0.00  0.00  0.90  0.00  0.00  0.00  0.00  0.00
  YS02001904YS02001907    1.00   0.00  0.09  0.00  0.90  0.00  0.00  0.00  0.00  0.00
  YS02001887YS02001890    1.00   0.00  0.00  0.00  0.99  0.00  0.01  0.00  0.00  0.00
  YS02001652YS02001649    1.00   0.00  0.00  0.00  1.00  0.00  0.00  0.00  0.27  0.00
  YS02001655YS02001652    1.00   0.00  0.00  0.00  0.87  0.00  0.00  0.13  0.03  0.00
  YS02001658YS02001655    1.00   0.00  0.08  0.00  0.86  0.06  0.00  0.00  0.20  0.00
  YS02001661YS02001658    1.00   0.08  0.00  0.00  0.62  0.30  0.00  0.00  0.34  0.00
  YS02001664YS02001661    1.00   0.05  0.00  0.00  0.95  0.00  0.00  0.00  0.86  0.00
  YSB1154YSB6556          1.00   0.05  0.00  0.00  0.95  0.00  0.00  0.00  0.02  0.00
  YSB1174YSB1171          1.00   0.02  0.02  0.00  0.96  0.00  0.00  0.00  0.00  0.00
  YSB1171HS02004479       1.00   0.02  0.00  0.00  0.98  0.00  0.00  0.01  0.13  0.00
  HS02004881HS02006253    1.00   0.02  0.00  0.00  0.00  0.00  0.00  0.98  0.00  0.00
  YS02001793JiankangQianchi    1.00   0.00  0.00  0.00  1.00  0.00  0.00  0.00  0.72  0.00
  YS02001757CaochengTiaoxuchi    1.00   0.00  0.16  0.00  0.84  0.00  0.00  0.00  0.00  0.00
  WSF200WS02003060        1.00   0.00  0.16  0.00  0.84  0.00  0.00  0.00  0.68  0.00
  1                       1.00   0.00  0.00  0.00  0.00  1.00  0.00  0.00  0.20  0.00
  2                       1.00   1.00  0.00  0.00  0.00  0.00  0.00  0.00  0.00  0.00
  3                       1.00   0.41  0.00  0.00  0.00  0.59  0.00  0.00  0.01  0.00
  4                       1.00   1.00  0.00  0.00  0.00  0.00  0.00  0.00  0.00  0.00
  
  
  *************************
  Conduit Surcharge Summary
  *************************
  
  ----------------------------------------------------------------------------
                                                           Hours        Hours 
                         --------- Hours Full --------   Above Full   Capacity
  Conduit                Both Ends  Upstream  Dnstream   Normal Flow   Limited
  ----------------------------------------------------------------------------
  WS02006256WS02006235        1.31      1.34      5.18      1.66         0.01
  WS02006235WS02006234        0.01      0.01      0.01      1.39         0.01
  WS02006231WS02006230        0.01      0.01      0.01      1.69         0.01
  WS02006230WS02006229        0.01      0.01      0.01      2.98         0.01
  WS02006228WS02006109        0.01      0.01      0.01      0.07         0.01
  WS02004404WS02004405        0.01      0.01      0.01      1.72         0.01
  WS02003072WS02003073        0.01      0.01      0.01      0.44         0.01
  YS02001759YS02001757        4.06      4.06      4.54      0.01         0.01
  YS02001762YS02001759        3.88      3.88      4.06      0.01         0.01
  YS02001765YS02001762        3.62      3.62      3.88      0.01         0.01
  YS02001770YS02001767        3.40      3.40      3.44      0.01         0.05
  YS02001774YS02001770        3.22      3.22      3.77      0.01         0.01
  YS02001779YS02001774        2.14      2.14      3.77      0.01         0.01
  YS02001649YS02001757        3.93      3.93      4.54      0.01         0.01
  YS02001767YS02001765        3.43      3.43      3.62      0.01         0.01
  YS02001629YS02163301        3.09      3.09      3.28      0.01         0.01
  YS02001619YS02001622        0.01      0.01      0.07      0.01         0.01
  YS02001622YS02001625        0.07      0.07      2.74      0.01         0.01
  YS02001625YS02001629        0.01      0.01      2.74      0.01         0.01
  YS02163301YS02001633        3.28      3.28      3.61      0.01         0.01
  YS02163601YS02164001        3.59      3.59      3.89      0.01         0.01
  YS02164001YS02001641        3.59      3.59      3.70      0.01         0.01
  YS02001641YS02001644        3.70      3.70      3.72      0.01         0.03
  YS02001647YS02001649        2.71      2.71      3.93      0.01         0.01
  YS02001633YS02163601        3.51      3.51      3.89      0.01         0.01
  YS02001644YS02001647        2.71      2.71      3.72      0.01         0.01
  YS02001748YS02001751        0.01      0.01      0.37      0.01         0.01
  YS02001751YS02001754        0.37      0.37      2.36      0.01         0.01
  YS02001754YS02001757        2.72      2.72      4.54      0.01         0.01
  YS02001652YS02001649        2.79      2.79      3.93      0.01         0.01
  YS02001655YS02001652        0.69      0.69      2.60      0.01         0.01
  YS02001658YS02001655        0.01      0.01      0.69      0.01         0.01
  YS02001793JiankangQianchi        0.01      0.01      7.82      0.01         0.01
  YS02001757CaochengTiaoxuchi        0.01      0.01      4.54      0.01         0.01
  
  
  ***************
  Pumping Summary
  ***************
  
  ---------------------------------------------------------------------------------------------------------
                                                  Min       Avg       Max     Total     Power    % Time Off
                        Percent   Number of      Flow      Flow      Flow    Volume     Usage    Pump Curve
  Pump                 Utilized   Start-Ups       LPS       LPS       LPS  10^6 ltr     Kw-hr    Low   High
  ---------------------------------------------------------------------------------------------------------
  CC-Pump-1                0.00           0      0.00      0.00      0.00     0.000      0.00    0.0    0.0
  CC-Pump-2                0.00           0      0.00      0.00      0.00     0.000      0.00    0.0    0.0
  JK-Pump-1               21.44          13      0.00    300.00    300.00     1.814     16.16    0.0    0.0
  JK-Pump-2                0.00           0      0.00      0.00      0.00     0.000      0.00    0.0    0.0
  XR-Pump-1              100.00           1      0.00     95.00     95.00     2.679     20.46    0.0    0.0
  XR-Pump-2               94.70           1      0.00     95.00     95.00     2.537     19.04    0.0    0.0
  XR-Pump-3               38.15           6      0.00     95.00     95.00     1.022      7.68    0.0    0.0
  XR-Pump-4                0.00           0      0.00      0.00      0.00     0.000      0.00    0.0    0.0
  

  Analysis begun on:  Wed Jan  5 21:56:39 2022
  Analysis ended on:  Wed Jan  5 21:56:40 2022
  Total elapsed time: 00:00:01