
  EPA STORM WATER MANAGEMENT MODEL - VERSION 5.1 (Build 5.3.0.dev0)
  --------------------------------------------------------------

  WARNING 04: minimum elevation drop used for Conduit WS02004404WS02004405
  WARNING 03: negative offset ignored for Link YS02001904YS02001907
  
  *********************************************************
  NOTE: The summary statistics displayed in this report are
  based on results found at every computational time step,  
  not just on results from each reporting time step.
  *********************************************************
  
  ****************
  Analysis Options
  ****************
  Flow Units ............... LPS
  Process Models:
    Rainfall/Runoff ........ YES
    RDII ................... NO
    Snowmelt ............... NO
    Groundwater ............ NO
    Flow Routing ........... YES
    Ponding Allowed ........ NO
    Water Quality .......... NO
  Infiltration Method ...... HORTON
  Flow Routing Method ...... DYNWAVE
  Surcharge Method ......... EXTRAN
  Starting Date ............ 08/28/2015 08:00:00
  Ending Date .............. 08/28/2015 15:50:00
  Antecedent Dry Days ...... 8.0
  Report Time Step ......... 00:01:00
  Wet Time Step ............ 00:01:00
  Dry Time Step ............ 00:01:00
  Routing Time Step ........ 5.00 sec
  Variable Time Step ....... YES
  Maximum Trials ........... 8
  Number of Threads ........ 4
  Head Tolerance ........... 0.001500 m
  
  
  **************************        Volume         Depth
  Runoff Quantity Continuity     hectare-m            mm
  **************************     ---------       -------
  Total Precipitation ......         3.868         8.469
  Evaporation Loss .........         0.000         0.000
  Infiltration Loss ........         0.985         2.157
  Surface Runoff ...........         1.916         4.194
  Final Storage ............         0.968         2.119
  Continuity Error (%) .....        -0.017
  
  
  **************************        Volume        Volume
  Flow Routing Continuity        hectare-m      10^6 ltr
  **************************     ---------     ---------
  Dry Weather Inflow .......         0.616         6.165
  Wet Weather Inflow .......         1.915        19.148
  Groundwater Inflow .......         0.000         0.000
  RDII Inflow ..............         0.000         0.000
  External Inflow ..........         0.102         1.024
  External Outflow .........         2.382        23.821
  Flooding Loss ............         0.281         2.813
  Evaporation Loss .........         0.000         0.000
  Exfiltration Loss ........         0.000         0.000
  Initial Stored Volume ....         0.076         0.761
  Final Stored Volume ......         0.386         3.858
  Continuity Error (%) .....       -12.531
  
  
  *************************
  Highest Continuity Errors
  *************************
  Node JK-storage (-59.06%)
  Node YS02001774 (23.13%)
  Node HS02004842 (20.89%)
  Node YS02001884 (14.45%)
  Node YSB1171 (4.66%)
  
  
  ***************************
  Time-Step Critical Elements
  ***************************
  Link 3 (91.78%)
  Link WS02006252WS02006251 (3.45%)
  Link WS02006280WS02006229 (1.34%)
  
  
  ********************************
  Highest Flow Instability Indexes
  ********************************
  Link WS02006252WS02006251 (41)
  Link WS02006113WS02006111 (28)
  Link WS02006111WS02006112 (23)
  Link YS02001779YS02001774 (19)
  Link YS02001774YS02001770 (17)
  
  
  *************************
  Routing Time Step Summary
  *************************
  Minimum Time Step           :     0.50 sec
  Average Time Step           :     0.77 sec
  Maximum Time Step           :     5.00 sec
  Percent in Steady State     :    -0.00
  Average Iterations per Step :     4.04
  Percent Not Converging      :    23.66
  
  
  ***************************
  Subcatchment Runoff Summary
  ***************************
  
  ------------------------------------------------------------------------------------------------------------------------------
                            Total      Total      Total      Total     Imperv       Perv      Total       Total     Peak  Runoff
                           Precip      Runon       Evap      Infil     Runoff     Runoff     Runoff      Runoff   Runoff   Coeff
  Subcatchment                 mm         mm         mm         mm         mm         mm         mm    10^6 ltr      LPS
  ------------------------------------------------------------------------------------------------------------------------------
  sub0                       8.47       0.00       0.00       0.59       6.61       0.00       6.61        0.01     1.03   0.781
  sub1                       8.47       0.00       0.00       0.93       6.28       0.00       6.28        0.04     7.43   0.741
  sub2                       8.47       0.00       0.00       3.13       4.43       0.00       4.43        0.04     7.08   0.523
  sub3                       8.47       0.00       0.00       3.13       4.39       0.00       4.39        0.10    15.91   0.518
  sub4                       8.47       0.00       0.00       0.93       6.13       0.00       6.13        0.13    19.23   0.724
  sub5                       8.47       0.00       0.00       0.59       6.56       0.00       6.56        0.07    13.22   0.775
  sub7                       8.47       0.00       0.00       0.76       6.45       0.00       6.45        0.02     4.04   0.762
  sub8                       8.47       0.00       0.00       0.76       6.44       0.00       6.44        0.04     7.54   0.761
  sub9                       8.47       0.00       0.00       0.76       6.44       0.00       6.44        0.03     5.65   0.760
  sub10                      8.47       0.00       0.00       0.68       6.50       0.00       6.50        0.07    12.87   0.767
  sub11                      8.47       0.00       0.00       0.68       6.52       0.00       6.52        0.08    13.93   0.769
  sub12                      8.47       0.00       0.00       1.10       6.18       0.00       6.18        0.05    10.23   0.730
  sub14                      8.47       0.00       0.00       0.76       6.44       0.00       6.44        0.06    11.15   0.760
  sub15                      8.47       0.00       0.00       2.54       4.95       0.00       4.95        0.09    15.40   0.584
  sub16                      8.47       0.00       0.00       2.79       4.76       0.00       4.76        0.05     9.37   0.561
  sub17                      8.47       0.00       0.00       2.71       4.82       0.00       4.82        0.04     7.75   0.570
  sub22                      8.47       0.00       0.00       3.64       4.04       0.00       4.04        0.26    47.08   0.477
  sub23                      8.47       0.00       0.00       3.13       4.46       0.00       4.46        0.21    39.46   0.527
  sub60                      8.47       0.00       0.00       1.02       4.75       0.00       4.75        1.44   149.28   0.561
  sub61                      8.47       0.00       0.00       1.44       4.95       0.00       4.95        1.53   180.35   0.585
  sub62                      8.47       0.00       0.00       0.68       5.35       0.00       5.35        1.64   187.08   0.631
  sub63                      8.47       0.00       0.00       2.46       4.37       0.00       4.37        1.32   164.01   0.516
  sub64                      8.47       0.00       0.00       1.27       4.55       0.00       4.55        1.38   141.99   0.537
  sub65                      8.47       0.00       0.00       1.10       4.62       0.00       4.62        1.42   144.28   0.545
  sub66                      8.47       0.00       0.00       2.46       3.94       0.00       3.94        1.21   129.20   0.465
  sub67                      8.47       0.00       0.00       0.68       5.75       0.00       5.75        1.78   226.25   0.679
  sub68                      8.47       0.00       0.00       1.19       5.24       0.00       5.24        1.61   196.27   0.618
  sub69                      8.47       0.00       0.00       1.27       5.53       0.00       5.53        1.29   176.57   0.653
  sub70                      8.47       5.64       0.00       4.80       7.11       0.00       7.11        1.63   167.69   0.504
  sub71                      8.47       0.00       0.00       0.68       5.16       0.00       5.16        1.22   132.38   0.610
  sub72                      8.47       0.00       0.00       0.59       3.87       0.00       3.87        0.79    64.98   0.457
  sub73                      8.47       6.92       0.00       5.23       7.51       0.00       7.51        1.76   149.38   0.488
  sub74                      8.47       0.00       0.00       6.35       1.66       0.00       1.66        0.66    93.55   0.196
  
  
  ******************
  Node Depth Summary
  ******************
  
  ---------------------------------------------------------------------------------
                                 Average  Maximum  Maximum  Time of Max    Reported
                                   Depth    Depth      HGL   Occurrence   Max Depth
  Node                 Type       Meters   Meters   Meters  days hr:min      Meters
  ---------------------------------------------------------------------------------
  WS02001211           JUNCTION     0.62     0.69     5.53     0  02:00        0.69
  WS02001212           JUNCTION     0.36     0.40     5.46     0  02:00        0.40
  WS02001213           JUNCTION     0.61     0.66     5.42     0  02:35        0.66
  WS02003069           JUNCTION     0.45     0.52     5.11     0  02:35        0.52
  WS02003072           JUNCTION     0.52     0.59     4.96     0  02:35        0.59
  WS02003073           JUNCTION     0.31     0.36     4.42     0  02:36        0.36
  WS02003060           JUNCTION     0.40     0.46     5.39     0  02:34        0.46
  WS02003066           JUNCTION     0.26     0.30     5.86     0  02:32        0.30
  WS02003059           JUNCTION     0.67     0.73     5.41     0  02:35        0.73
  WS02003067           JUNCTION     0.62     0.71     6.03     0  02:32        0.71
  WS02004401           JUNCTION     0.74     0.87     6.87     0  02:29        0.87
  WS02004402           JUNCTION     0.77     0.90     6.86     0  02:29        0.90
  WS02004403           JUNCTION     0.79     0.91     6.84     0  02:29        0.91
  WS02004404           JUNCTION     0.86     0.98     6.83     0  02:30        0.98
  WS02004406           JUNCTION     0.86     0.97     6.80     0  02:30        0.97
  WS02004409           JUNCTION     0.56     0.69     6.46     0  02:31        0.69
  WS02004410           JUNCTION     0.58     0.70     6.42     0  02:31        0.70
  WS02004411           JUNCTION     0.59     0.71     6.39     0  02:32        0.71
  WS02004412           JUNCTION     0.60     0.71     6.35     0  02:32        0.71
  WS02004413           JUNCTION     0.75     0.87     6.34     0  02:32        0.87
  WS02004405           JUNCTION     0.86     0.97     6.82     0  02:30        0.97
  WS02006109           JUNCTION     0.84     0.99     7.61     0  02:27        0.99
  WS02006110           JUNCTION     0.82     0.94     7.52     0  02:27        0.94
  WS02006111           JUNCTION     0.25     0.29     7.00     0  02:28        0.29
  WS02006112           JUNCTION     0.92     1.19     7.08     0  02:38        1.08
  WS02006113           JUNCTION     0.39     0.47     7.36     0  02:28        0.47
  WS02006115           JUNCTION     0.64     0.78     6.92     0  02:29        0.78
  WS02006116           JUNCTION     0.72     0.86     6.90     0  02:30        0.86
  WS02006230           JUNCTION     0.86     1.05     7.80     0  02:27        1.05
  WS02006231           JUNCTION     0.58     0.72     7.85     0  02:27        0.72
  WS02006232           JUNCTION     0.72     0.86     7.90     0  02:27        0.86
  WS02006234           JUNCTION     0.67     0.80     7.95     0  02:27        0.80
  WS02006235           JUNCTION     0.71     0.83     7.99     0  02:27        0.83
  WS02006238           JUNCTION     0.74     0.86     8.00     0  02:27        0.86
  WS02006240           JUNCTION     0.66     0.77     8.06     0  02:27        0.77
  WS02006242           JUNCTION     0.72     0.83     8.10     0  02:27        0.83
  WS02006243           JUNCTION     0.62     0.72     8.14     0  02:27        0.72
  WS02006245           JUNCTION     0.59     0.69     8.17     0  02:27        0.69
  WS02006247           JUNCTION     0.60     0.69     8.19     0  02:27        0.69
  WS02006248           JUNCTION     0.55     0.63     8.21     0  02:28        0.63
  WS02006249           JUNCTION     0.56     0.64     8.23     0  02:27        0.64
  WS02006239           JUNCTION     0.71     0.82     8.03     0  02:27        0.82
  WS02006251           JUNCTION     0.58     0.67     8.34     0  02:27        0.67
  WS02006252           JUNCTION     0.54     0.59     8.84     0  03:34        0.59
  WS02006253           JUNCTION     0.61     0.70     8.34     0  02:26        0.70
  WS02006256           JUNCTION     1.13     2.35     9.28     0  00:00        1.21
  WS02004138           JUNCTION     0.14     0.17     7.42     0  01:42        0.17
  WS02004407           JUNCTION     0.25     0.30     6.62     0  02:30        0.30
  WS02006228           JUNCTION     0.85     1.04     7.69     0  02:27        1.04
  WS02006229           JUNCTION     0.84     1.04     7.74     0  02:27        1.04
  WS02006280           JUNCTION     0.07     0.14     8.41     0  02:27        0.14
  WS02006284           JUNCTION     0.37     0.48     8.88     0  02:27        0.48
  WS02006287           JUNCTION     0.10     0.21     9.16     0  02:27        0.21
  WSF200               JUNCTION     0.26     0.32     5.55     0  02:33        0.32
  HS02004901           JUNCTION     0.13     0.22    10.04     0  02:25        0.22
  HS02004881           JUNCTION     0.01     0.02     9.05     0  02:26        0.02
  HS02004876           JUNCTION     0.05     0.10     9.13     0  02:25        0.10
  HS02004870           JUNCTION     0.01     0.04     9.33     0  02:26        0.04
  HS02004862           JUNCTION     0.02     0.05     9.43     0  02:27        0.05
  HS02004856           JUNCTION     0.08     0.11     9.53     0  02:26        0.11
  HS02004852           JUNCTION     0.01     0.03     9.54     0  02:27        0.03
  HS02004848           JUNCTION     0.01     0.03     9.63     0  02:26        0.03
  HS02004842           JUNCTION     0.33     0.36     9.63     0  02:26        0.36
  HS02004837           JUNCTION     0.03     0.05     9.63     0  02:26        0.05
  HS02004830           JUNCTION     0.04     0.06     9.53     0  02:26        0.06
  HS02004824           JUNCTION     0.02     0.04     9.45     0  02:27        0.04
  HS02004817           JUNCTION     0.44     0.53     9.37     0  02:27        0.53
  HS02004807           JUNCTION     0.12     0.20     9.37     0  02:27        0.20
  HS02004802           JUNCTION     0.16     0.24     9.37     0  02:27        0.24
  HS02004799           JUNCTION     0.12     0.25     9.46     0  02:25        0.25
  HS02004792           JUNCTION     0.03     0.09     9.62     0  02:25        0.09
  HS02004788           JUNCTION     0.03     0.07     9.97     0  02:26        0.07
  HS02004785           JUNCTION     0.05     0.13    10.03     0  02:25        0.13
  HS02004777           JUNCTION     0.15     0.24    10.04     0  02:25        0.24
  HS02004770           JUNCTION     0.12     0.21    10.04     0  02:25        0.21
  HS02004480           JUNCTION     0.08     0.19     9.43     0  02:26        0.19
  HS02004479           JUNCTION     0.12     0.23     9.43     0  02:25        0.23
  HS02004478           JUNCTION     0.06     0.12     9.35     0  02:26        0.12
  YS02001745           JUNCTION     0.28     0.64     8.16     0  04:24        0.63
  YS02001748           JUNCTION     0.66     1.10     8.17     0  04:23        1.07
  YS02001751           JUNCTION     0.84     2.20     9.08     0  02:58        1.25
  YS02001754           JUNCTION     1.09     2.13     8.74     0  02:59        1.49
  YS02001762           JUNCTION     1.30     1.89     8.29     0  02:58        1.70
  YS02001765           JUNCTION     1.25     1.90     8.35     0  02:58        1.65
  YS02001767           JUNCTION     1.21     1.88     8.37     0  02:58        1.62
  YS02001770           JUNCTION     1.21     1.95     8.44     0  02:58        1.67
  YS02001774           JUNCTION     1.28     2.02     8.44     0  02:58        1.75
  YS02001779           JUNCTION     1.02     1.68     8.37     0  02:56        1.50
  YS02001882           JUNCTION     0.37     0.64     7.35     0  03:01        0.64
  YS02001884           JUNCTION     0.47     0.73     7.35     0  03:01        0.73
  YS02001759           JUNCTION     1.33     1.91     8.27     0  02:58        1.75
  YS02001887           JUNCTION     0.55     0.81     7.35     0  03:02        0.81
  YS02001890           JUNCTION     0.58     0.84     7.35     0  03:02        0.84
  YS02001898           JUNCTION     0.34     0.60     7.33     0  03:00        0.59
  YS02001901           JUNCTION     0.46     0.72     7.33     0  03:00        0.72
  YS02001904           JUNCTION     0.44     0.69     7.32     0  03:03        0.69
  YS02001907           JUNCTION     0.77     1.05     7.34     0  02:54        1.03
  YS02001910           JUNCTION     0.56     0.82     7.33     0  03:00        0.82
  YS02001915           JUNCTION     0.36     0.61     7.33     0  03:00        0.60
  YS02001918           JUNCTION     0.12     0.26     7.32     0  03:01        0.26
  YS02001619           JUNCTION     0.81     1.53     8.46     0  03:55        1.24
  YS02001629           JUNCTION     1.16     1.66     8.21     0  03:53        1.57
  YS02001641           JUNCTION     1.27     1.81     8.24     0  03:02        1.72
  YS02001644           JUNCTION     1.27     1.83     8.27     0  03:02        1.73
  YS02001652           JUNCTION     1.11     2.11     8.71     0  03:05        1.67
  YS02001655           JUNCTION     0.87     2.20     9.05     0  03:00        1.48
  YS02001920           JUNCTION     0.21     0.33     7.34     0  03:01        0.33
  YS02001923           JUNCTION     0.08     0.12     7.38     0  03:02        0.12
  YS02001926           JUNCTION     0.18     0.23     7.67     0  03:01        0.23
  YS02001929           JUNCTION     0.09     0.12     7.81     0  03:01        0.12
  YS02001658           JUNCTION     0.60     2.08     9.22     0  04:01        1.09
  YS02001661           JUNCTION     0.39     0.67     8.07     0  04:11        0.66
  YS02001664           JUNCTION     0.09     0.15     8.08     0  03:01        0.15
  YS02001622           JUNCTION     0.83     1.57     8.47     0  03:55        1.26
  YS02001633           JUNCTION     1.26     1.73     8.18     0  03:53        1.63
  YS02001649           JUNCTION     1.31     1.96     8.35     0  03:02        1.79
  YS02001757           JUNCTION     1.43     1.96     8.22     0  02:58        1.85
  YS02001895           JUNCTION     0.34     0.59     7.33     0  03:01        0.59
  YS02001625           JUNCTION     1.12     1.66     8.27     0  03:53        1.52
  YS02163301           JUNCTION     1.19     1.68     8.20     0  03:53        1.59
  YS02163601           JUNCTION     1.31     1.81     8.21     0  03:02        1.70
  YS02164001           JUNCTION     1.25     1.79     8.25     0  03:02        1.68
  YS02001647           JUNCTION     1.10     1.73     8.34     0  03:02        1.58
  YSB1154              JUNCTION     0.26     0.38     9.43     0  02:26        0.38
  YSB6556              JUNCTION     0.15     0.26     9.43     0  02:26        0.26
  YSB1174              JUNCTION     0.21     0.32     9.43     0  02:26        0.32
  YSB1171              JUNCTION     0.41     0.53     9.43     0  02:25        0.53
  YS02006553           JUNCTION     0.78     1.05     7.34     0  02:54        1.04
  YS02006561           JUNCTION     0.19     0.36     7.02     0  03:03        0.34
  YS02006556           JUNCTION     0.75     1.02     7.33     0  03:04        1.00
  YS02006558           JUNCTION     0.79     1.06     7.33     0  03:04        1.05
  YS02001783           JUNCTION     0.33     0.61     6.75     0  03:03        0.60
  YS02001784           JUNCTION     0.36     0.62     6.69     0  03:03        0.62
  YS02001786           JUNCTION     0.30     0.52     6.55     0  03:02        0.52
  YS02001788           JUNCTION     0.23     0.41     6.38     0  03:02        0.40
  YS02001790           JUNCTION     0.27     0.49     6.13     0  03:02        0.49
  YS02001791           JUNCTION     0.18     0.30     5.77     0  03:04        0.30
  YS02001793           JUNCTION     0.12     0.19     5.02     0  03:02        0.19
  WS02004139           JUNCTION     0.56     0.63     5.54     0  02:00        0.63
  WSC                  OUTFALL      0.31     0.36     1.03     0  02:36        0.36
  3                    OUTFALL      0.15     0.23     6.23     0  00:00        0.21
  4                    OUTFALL      0.09     0.14     7.14     0  02:27        0.14
  5                    OUTFALL      0.00     0.00     5.00     0  00:00        0.00
  JK-storage           STORAGE      0.02     3.00     3.80     0  00:00        2.39
  CC-storage           STORAGE      0.62     1.01     8.01     0  04:45        1.01
  XR-storage           STORAGE      7.65     7.72     5.72     0  00:51        7.72
  
  
  *******************
  Node Inflow Summary
  *******************
  
  -------------------------------------------------------------------------------------------------
                                  Maximum  Maximum                  Lateral       Total        Flow
                                  Lateral    Total  Time of Max      Inflow      Inflow     Balance
                                   Inflow   Inflow   Occurrence      Volume      Volume       Error
  Node                 Type           LPS      LPS  days hr:min    10^6 ltr    10^6 ltr     Percent
  -------------------------------------------------------------------------------------------------
  WS02001211           JUNCTION      7.35   292.67     0  02:00       0.207        5.11       0.649
  WS02001212           JUNCTION      0.00   292.67     0  02:00           0        5.08       0.343
  WS02001213           JUNCTION      0.00   292.67     0  02:00           0        5.06       0.433
  WS02003069           JUNCTION      0.32   780.45     0  02:34     0.00902        14.7       0.211
  WS02003072           JUNCTION      0.00   780.44     0  02:35           0        14.7       0.255
  WS02003073           JUNCTION      1.82   782.25     0  02:36      0.0514        14.7       0.289
  WS02003060           JUNCTION     16.53   780.12     0  02:34       0.466        14.8       0.198
  WS02003066           JUNCTION      0.00   567.20     0  02:32           0        9.29       0.056
  WS02003059           JUNCTION      0.00   292.69     0  01:55           0        5.04       0.780
  WS02003067           JUNCTION      0.00   567.19     0  02:32           0         9.3       0.112
  WS02004401           JUNCTION      0.00   567.60     0  02:28           0        9.56       0.254
  WS02004402           JUNCTION      0.00   567.49     0  02:29           0        9.54       0.236
  WS02004403           JUNCTION      0.00   567.45     0  02:29           0        9.52       0.212
  WS02004404           JUNCTION      0.16   567.59     0  02:29     0.00457         9.5       0.156
  WS02004406           JUNCTION      0.00   567.63     0  02:30           0        9.47       0.381
  WS02004409           JUNCTION      0.00   567.58     0  02:30           0        9.42       0.210
  WS02004410           JUNCTION      0.00   567.42     0  02:31           0         9.4       0.233
  WS02004411           JUNCTION      0.00   567.30     0  02:31           0        9.38       0.236
  WS02004412           JUNCTION      0.00   567.24     0  02:31           0        9.36       0.249
  WS02004413           JUNCTION      0.00   567.20     0  02:32           0        9.33       0.362
  WS02004405           JUNCTION      0.04   567.61     0  02:30     0.00107        9.49       0.235
  WS02006109           JUNCTION      1.23   560.66     0  02:27      0.0347        9.66       0.244
  WS02006110           JUNCTION      0.00   560.66     0  02:27           0        9.64       0.227
  WS02006111           JUNCTION      0.00   585.01     0  02:28           0        9.61       0.052
  WS02006112           JUNCTION      7.75   572.63     0  02:27      0.0414        9.64       0.327
  WS02006113           JUNCTION      0.00   560.95     0  02:28           0        9.62       0.125
  WS02006115           JUNCTION      0.00   582.34     0  02:38           0        9.61       0.252
  WS02006116           JUNCTION      0.00   567.84     0  02:28           0        9.59       0.238
  WS02006230           JUNCTION     10.28   401.30     0  04:11        0.29        8.36       0.184
  WS02006231           JUNCTION      0.00   390.95     0  04:10           0        8.09       0.180
  WS02006232           JUNCTION      0.00   390.95     0  04:10           0         8.1       0.220
  WS02006234           JUNCTION      0.00   390.92     0  04:10           0        8.11       0.131
  WS02006235           JUNCTION      0.00   390.91     0  04:10           0        8.15       0.149
  WS02006238           JUNCTION      0.00   312.17     0  07:50           0        6.26       0.147
  WS02006240           JUNCTION      0.00   313.04     0  02:03           0        6.26       0.258
  WS02006242           JUNCTION      0.00   327.66     0  02:02           0        6.27       0.298
  WS02006243           JUNCTION      0.00   338.07     0  02:02           0        6.28       0.212
  WS02006245           JUNCTION      0.00   345.92     0  02:02           0        6.29       0.188
  WS02006247           JUNCTION      0.00   352.09     0  02:02           0         6.3       0.168
  WS02006248           JUNCTION      0.00   357.91     0  02:02           0        6.31       0.127
  WS02006249           JUNCTION      0.00   441.76     0  02:26           0        8.55       0.171
  WS02006239           JUNCTION      0.00   312.15     0  07:50           0        6.26       0.239
  WS02006251           JUNCTION      0.08   441.80     0  02:26     0.00217        8.56       0.165
  WS02006252           JUNCTION      0.00   400.00     0  02:20           0        8.33       0.006
  WS02006253           JUNCTION      1.03    41.74     0  02:26     0.00535       0.235       3.656
  WS02006256           JUNCTION      0.00   600.00     0  00:00           0        8.86       0.026
  WS02004138           JUNCTION      0.00   285.00     0  01:40           0        4.93       0.064
  WS02004407           JUNCTION      0.00   567.60     0  02:30           0        9.43       0.094
  WS02006228           JUNCTION      0.00   559.44     0  02:27           0        9.65       0.177
  WS02006229           JUNCTION      0.00   559.41     0  02:27           0        9.66       0.125
  WS02006280           JUNCTION      0.00   204.81     0  02:27           0        1.31       0.005
  WS02006284           JUNCTION      0.10   204.80     0  02:27      0.0027        1.31       0.087
  WS02006287           JUNCTION      0.00   204.70     0  02:27           0        1.31       0.053
  WSF200               JUNCTION      0.00   567.20     0  02:32           0        9.28       0.060
  HS02004901           JUNCTION      9.37     9.37     0  02:23      0.0498      0.0501       3.647
  HS02004881           JUNCTION      4.04    40.76     0  02:26      0.0217        0.23       0.121
  HS02004876           JUNCTION      7.43    36.75     0  02:26      0.0417       0.209       0.259
  HS02004870           JUNCTION      7.54    29.42     0  02:26      0.0411       0.167       0.066
  HS02004862           JUNCTION      7.28    22.06     0  02:26      0.0469       0.126       0.137
  HS02004856           JUNCTION      5.65    14.84     0  02:26       0.031      0.0805       1.827
  HS02004852           JUNCTION      0.00     9.33     0  02:26           0      0.0496       0.109
  HS02004848           JUNCTION     15.91    15.91     0  02:26      0.0988      0.0988       0.048
  HS02004842           JUNCTION      0.00     6.79     0  02:52           0      0.0622      26.414
  HS02004837           JUNCTION     19.22    25.66     0  02:25       0.251         0.3       0.273
  HS02004830           JUNCTION      0.15    25.80     0  02:26     0.00423        0.29       0.426
  HS02004824           JUNCTION     19.28    44.91     0  02:27       0.129       0.418       0.129
  HS02004817           JUNCTION      0.60    45.51     0  02:27      0.0169       0.435       3.988
  HS02004807           JUNCTION     13.93    58.94     0  02:27      0.0757       0.494       0.884
  HS02004802           JUNCTION      0.00    59.00     0  02:28           0       0.491       0.817
  HS02004799           JUNCTION     11.15   123.20     0  02:25      0.0613       0.713       0.360
  HS02004792           JUNCTION     47.36   112.13     0  02:24       0.263       0.652       0.064
  HS02004788           JUNCTION     17.07    65.26     0  02:25       0.132        0.39       0.100
  HS02004785           JUNCTION      0.15    48.39     0  02:25     0.00423       0.259       0.188
  HS02004777           JUNCTION      0.03    48.40     0  02:24    0.000846        0.26       2.037
  HS02004770           JUNCTION     39.46    48.64     0  02:23       0.213       0.261       1.203
  HS02004480           JUNCTION      0.00   146.07     0  02:25           0       0.837       0.127
  HS02004479           JUNCTION      0.00    23.09     0  02:27           0       0.137       0.538
  HS02004478           JUNCTION      0.00   204.69     0  02:26           0        1.31       0.032
  YS02001745           JUNCTION    149.28   342.96     0  04:14        1.44        1.82       0.078
  YS02001748           JUNCTION      0.04   411.13     0  04:15     0.00127        1.83      -0.024
  YS02001751           JUNCTION      0.01   477.20     0  02:58     0.00031        1.45       0.419
  YS02001754           JUNCTION      0.26   221.85     0  03:03     0.00733        1.44       1.318
  YS02001762           JUNCTION      0.00   203.32     0  03:01           0        1.58       1.307
  YS02001765           JUNCTION      0.00   201.70     0  03:01           0        1.58       1.486
  YS02001767           JUNCTION      0.54   201.63     0  03:01      0.0151         1.6       2.123
  YS02001770           JUNCTION    187.24   199.76     0  03:01        1.65        1.68       1.687
  YS02001774           JUNCTION      0.00    38.16     0  06:51           0       0.105      30.090
  YS02001779           JUNCTION      0.01    37.87     0  06:51    0.000141      0.0442      31.039
  YS02001882           JUNCTION      0.00    11.49     0  03:06           0      0.0119      19.699
  YS02001884           JUNCTION      0.00    14.76     0  03:01           0      0.0378      16.887
  YS02001759           JUNCTION    180.39   384.31     0  03:01        1.53        3.08       0.737
  YS02001887           JUNCTION    226.70   236.43     0  02:59        1.79        1.81       0.433
  YS02001890           JUNCTION      0.00   232.89     0  03:02           0        1.77       0.482
  YS02001898           JUNCTION      0.00   243.59     0  03:02           0        1.76       0.153
  YS02001901           JUNCTION      0.00   243.21     0  03:03           0        1.76       0.353
  YS02001904           JUNCTION      0.00   243.30     0  03:03           0        1.75       0.325
  YS02001907           JUNCTION      0.00   464.08     0  03:03           0        3.82       0.598
  YS02001910           JUNCTION      0.00   226.95     0  03:02           0        2.08       0.527
  YS02001915           JUNCTION    132.40   213.03     0  03:02        1.22        2.08       0.254
  YS02001918           JUNCTION      0.00    74.73     0  03:07           0       0.866       0.176
  YS02001619           JUNCTION    129.20   129.20     0  03:01        1.21        1.21       0.414
  YS02001629           JUNCTION      0.00   231.06     0  03:02           0        1.16       1.460
  YS02001641           JUNCTION      0.00   284.83     0  03:03           0        2.49       0.821
  YS02001644           JUNCTION    142.03   422.45     0  03:00        1.38        3.85       0.661
  YS02001652           JUNCTION      0.00   229.01     0  02:54           0        1.31       1.420
  YS02001655           JUNCTION      0.15   390.05     0  03:02     0.00434        1.33       0.736
  YS02001920           JUNCTION      2.87    67.64     0  03:02      0.0809       0.868       0.286
  YS02001923           JUNCTION      0.04    64.78     0  03:02     0.00106       0.788       0.052
  YS02001926           JUNCTION      0.05    64.97     0  03:01     0.00147       0.789       0.356
  YS02001929           JUNCTION     64.98    64.98     0  03:01       0.788       0.788       0.051
  YS02001658           JUNCTION      0.00   440.23     0  03:55           0        1.53       0.225
  YS02001661           JUNCTION      0.00   374.03     0  03:55           0        1.52       0.063
  YS02001664           JUNCTION    164.01   164.01     0  03:01        1.32        1.32       0.013
  YS02001622           JUNCTION      0.00   178.16     0  03:03           0         1.2       1.393
  YS02001633           JUNCTION    144.48   286.42     0  03:03        1.43        2.55       1.218
  YS02001649           JUNCTION      0.00   625.21     0  03:02           0        5.08       0.722
  YS02001757           JUNCTION      0.00  1109.93     0  03:02           0        9.49       0.977
  YS02001895           JUNCTION      0.00   243.69     0  03:02           0        1.76       0.241
  YS02001625           JUNCTION      0.00   230.99     0  03:02           0        1.19       2.703
  YS02163301           JUNCTION      0.00   155.22     0  02:42           0        1.15       1.962
  YS02163601           JUNCTION      0.11   286.15     0  03:03      0.0031        2.51       1.192
  YS02164001           JUNCTION      0.00   285.77     0  03:03           0        2.49       0.770
  YS02001647           JUNCTION      0.00   422.37     0  03:00           0        3.81       0.615
  YSB1154              JUNCTION     13.22    13.22     0  02:24      0.0743      0.0752       1.964
  YSB6556              JUNCTION      0.00    13.14     0  02:25           0      0.0759       1.671
  YSB1174              JUNCTION     10.23    10.23     0  02:22       0.054      0.0546       2.413
  YSB1171              JUNCTION      0.00    23.08     0  02:25           0       0.136       4.884
  YS02006553           JUNCTION      0.00   452.59     0  03:03           0        3.81       0.395
  YS02006561           JUNCTION      0.00   675.49     0  03:03           0        5.39      -0.001
  YS02006556           JUNCTION      0.00   453.00     0  03:02           0        3.81       0.284
  YS02006558           JUNCTION    197.15   647.00     0  03:04        1.63        5.42       0.104
  YS02001783           JUNCTION      0.00   652.15     0  03:03           0        5.39       0.036
  YS02001784           JUNCTION      1.06   649.25     0  03:03      0.0299        5.42       0.057
  YS02001786           JUNCTION      0.06   638.77     0  03:04     0.00159        5.42       0.055
  YS02001788           JUNCTION      0.07   636.41     0  03:02       0.002        5.42       0.032
  YS02001790           JUNCTION      0.15   638.34     0  03:02     0.00437        5.42       0.040
  YS02001791           JUNCTION      0.00   637.19     0  03:02           0        5.42       0.020
  YS02001793           JUNCTION      0.00   634.70     0  03:02           0        5.42       0.009
  WS02004139           JUNCTION      0.32   285.32     0  01:42     0.00905        4.94       0.636
  WSC                  OUTFALL       0.00   782.25     0  02:36           0        14.7       0.000
  3                    OUTFALL       0.00   597.65     0  00:00           0        6.93       0.000
  4                    OUTFALL       0.00   174.79     0  02:27           0        2.22       0.000
  5                    OUTFALL       0.00     0.00     0  00:00           0           0       0.000 ltr
  JK-storage           STORAGE       0.00   638.43     0  03:02           0        5.57     -37.131
  CC-storage           STORAGE       0.00  1110.03     0  03:02           0        9.39      -0.457
  XR-storage           STORAGE     442.93   442.93     0  03:01        8.07        8.67      -0.002
  
  
  **********************
  Node Surcharge Summary
  **********************
  
  Surcharging occurs when water rises above the top of the highest conduit.
  ---------------------------------------------------------------------
                                               Max. Height   Min. Depth
                                   Hours       Above Crown    Below Rim
  Node                 Type      Surcharged         Meters       Meters
  ---------------------------------------------------------------------
  WS02006109           JUNCTION        5.79          0.175        1.645
  WS02006110           JUNCTION        0.91          0.028        1.822
  WS02006112           JUNCTION        1.18          0.195        1.485
  WS02006231           JUNCTION        0.36          0.014        1.516
  WS02006232           JUNCTION        5.78          0.157        1.323
  WS02006234           JUNCTION        1.39          0.077        1.163
  WS02006235           JUNCTION        5.76          0.119        1.171
  WS02006238           JUNCTION        5.77          0.136        1.294
  WS02006240           JUNCTION        1.62          0.061        1.329
  WS02006242           JUNCTION        5.75          0.103        0.717
  WS02006243           JUNCTION        0.77          0.012        0.758
  WS02006239           JUNCTION        2.96          0.084        1.206
  WS02006252           JUNCTION        5.79          0.193        0.907
  WS02006256           JUNCTION        0.01          1.050        0.000
  WS02006228           JUNCTION        5.79          0.210        1.990
  YS02001748           JUNCTION        0.01          0.016        1.174
  YS02001751           JUNCTION        2.27          1.200        0.000
  YS02001754           JUNCTION        4.14          1.082        0.068
  YS02001762           JUNCTION        5.50          0.885        0.265
  YS02001765           JUNCTION        5.31          0.895        0.205
  YS02001767           JUNCTION        5.07          0.881        0.149
  YS02001770           JUNCTION        4.86          0.920        0.000
  YS02001774           JUNCTION        5.45          1.020        0.030
  YS02001779           JUNCTION        3.97          0.680        0.000
  YS02001759           JUNCTION        5.53          0.906        0.304
  YS02001907           JUNCTION        0.24          0.041        0.909
  YS02001619           JUNCTION        1.78          0.535        0.075
  YS02001629           JUNCTION        1.85          0.281        0.189
  YS02001641           JUNCTION        5.39          0.807        0.293
  YS02001644           JUNCTION        5.41          0.835        0.085
  YS02001652           JUNCTION        4.34          1.081        0.049
  YS02001655           JUNCTION        2.66          1.200        0.000
  YS02001658           JUNCTION        0.01          1.076        0.224
  YS02001622           JUNCTION        2.22          0.570        0.050
  YS02001633           JUNCTION        5.21          0.710        0.350
  YS02001649           JUNCTION        5.51          0.956        0.094
  YS02001757           JUNCTION        5.64          0.962        0.248
  YS02001625           JUNCTION        4.53          0.662        0.118
  YS02163301           JUNCTION        4.96          0.685        0.345
  YS02163601           JUNCTION        5.51          0.813        0.267
  YS02164001           JUNCTION        5.30          0.792        0.308
  YS02001647           JUNCTION        4.45          0.732        0.168
  YS02006553           JUNCTION        0.35          0.052        1.138
  
  
  *********************
  Node Flooding Summary
  *********************
  
  Flooding refers to all water that overflows a node, whether it ponds or not.
  --------------------------------------------------------------------------
                                                             Total   Maximum
                                 Maximum   Time of Max       Flood    Ponded
                        Hours       Rate    Occurrence      Volume     Depth
  Node                 Flooded       LPS   days hr:min    10^6 ltr    Meters
  --------------------------------------------------------------------------
  WS02006256              0.01    406.11      0  00:00       0.001     0.000
  YS02001751              0.01    174.63      0  02:58       0.000     0.000
  YS02001770              0.01      6.48      0  02:58       0.000     0.000
  YS02001779              0.01     19.77      0  02:56       0.000     0.000
  YS02001655              0.01    222.84      0  03:02       0.002     0.000
  XR-storage              6.46    252.92      0  03:01       2.810     0.000
  
  
  **********************
  Storage Volume Summary
  **********************
  
  --------------------------------------------------------------------------------------------------
                         Average     Avg  Evap Exfil       Maximum     Max    Time of Max    Maximum
                          Volume    Pcnt  Pcnt  Pcnt        Volume    Pcnt     Occurrence    Outflow
  Storage Unit           1000 m3    Full  Loss  Loss       1000 m3    Full    days hr:min        LPS
  --------------------------------------------------------------------------------------------------
  JK-storage               0.001       0     0     0         0.151      52       0  00:00     600.00
  CC-storage               1.735      11     0     0         2.810      18       0  04:45     400.00
  XR-storage               0.918      99     0     0         0.926     100       0  00:51     285.00
  
  
  ***********************
  Outfall Loading Summary
  ***********************
  
  -----------------------------------------------------------
                         Flow       Avg       Max       Total
                         Freq      Flow      Flow      Volume
  Outfall Node           Pcnt       LPS       LPS    10^6 ltr
  -----------------------------------------------------------
  WSC                   99.99    620.25    782.25      14.667
  3                     96.04    343.03    597.65       6.934
  4                     92.02    108.28    174.79       2.221
  5                      0.00      0.00      0.00       0.000
  -----------------------------------------------------------
  System                72.01   1071.56   1473.99      23.821
  
  
  ********************
  Link Flow Summary
  ********************
  
  -----------------------------------------------------------------------------
                                 Maximum  Time of Max   Maximum    Max/    Max/
                                  |Flow|   Occurrence   |Veloc|    Full    Full
  Link                 Type          LPS  days hr:min     m/sec    Flow   Depth
  -----------------------------------------------------------------------------
  WS02003066WSF200     CONDUIT    567.20     0  02:32      2.77    0.10    0.24
  WS02006287WS02006284 CONDUIT    204.71     0  02:27      1.62    0.09    0.22
  WS02006284WS02006280 CONDUIT    204.81     0  02:27      1.86    0.09    0.20
  WS02006280WS02006229 CONDUIT    204.81     0  02:27      2.99    0.04    0.14
  WS02006229WS02006228 CONDUIT    559.44     0  02:27      1.11    1.85    1.00
  WS02006256WS02006235 CONDUIT    177.52     0  00:01      2.73    1.88    1.00
  WS02006253WS02006251 CONDUIT     41.72     0  02:26      0.43    0.13    0.97
  WS02006252WS02006251 CONDUIT    400.35     0  05:53      3.19    1.47    1.00
  WS02006251WS02006249 CONDUIT    441.76     0  02:26      1.18    1.27    0.93
  WS02006249WS02006248 CONDUIT    357.91     0  02:02      1.19    1.96    0.89
  WS02006248WS02006247 CONDUIT    352.09     0  02:02      1.16    0.77    0.94
  WS02006247WS02006245 CONDUIT    345.92     0  02:02      1.13    2.74    0.98
  WS02006245WS02006243 CONDUIT    338.07     0  02:02      1.17    1.00    0.99
  WS02006243WS02006242 CONDUIT    327.66     0  02:02      1.00    0.70    1.00
  WS02006242WS02006240 CONDUIT    313.04     0  02:03      0.89    1.24    1.00
  WS02006240WS02006239 CONDUIT    312.15     0  07:50      0.86    0.98    1.00
  WS02006239WS02006238 CONDUIT    312.17     0  07:50      0.81    1.00    1.00
  WS02006238WS02006235 CONDUIT    312.17     0  07:50      1.32    0.70    1.00
  WS02006235WS02006234 CONDUIT    390.92     0  04:10      1.03    4.12    1.00
  WS02006234WS02006232 CONDUIT    390.95     0  04:10      1.17    0.79    1.00
  WS02006232WS02006231 CONDUIT    390.95     0  04:10      1.05    0.82    1.00
  WS02006231WS02006230 CONDUIT    391.02     0  04:11      1.25    5.93    0.98
  WS02006230WS02006229 CONDUIT    401.43     0  04:11      1.04    8.93    1.00
  WS02006228WS02006109 CONDUIT    559.43     0  02:27      1.11    2.44    1.00
  WS02006116WS02004401 CONDUIT    567.60     0  02:28      0.79    0.78    0.87
  WS02006115WS02006116 CONDUIT    567.84     0  02:28      0.88    0.73    0.79
  WS02006113WS02006111 CONDUIT    585.01     0  02:28      2.50    0.70    0.47
  WS02006112WS02006115 CONDUIT    582.34     0  02:38      0.80    0.34    0.88
  WS02006111WS02006112 CONDUIT    565.34     0  02:28      1.56    0.27    0.68
  WS02006110WS02006113 CONDUIT    560.95     0  02:28      1.32    0.51    0.79
  WS02006109WS02006110 CONDUIT    560.66     0  02:27      1.12    1.08    1.00
  WS02004411WS02004412 CONDUIT    567.24     0  02:31      0.95    0.81    0.71
  WS02004401WS02004402 CONDUIT    567.49     0  02:29      0.77    0.68    0.89
  WS02004413WS02003067 CONDUIT    567.19     0  02:32      1.14    0.24    0.60
  WS02004412WS02004413 CONDUIT    567.20     0  02:32      0.85    0.38    0.79
  WS02004410WS02004411 CONDUIT    567.30     0  02:31      0.96    0.77    0.70
  WS02004409WS02004410 CONDUIT    567.42     0  02:31      0.97    0.73    0.69
  WS02004407WS02004409 CONDUIT    567.58     0  02:30      1.46    0.20    0.50
  WS02004406WS02004407 CONDUIT    567.60     0  02:30      1.07    0.25    0.64
  WS02004405WS02004406 CONDUIT    567.63     0  02:30      0.73    1.12    0.97
  WS02004404WS02004405 CONDUIT    567.57     0  02:30      0.73    5.56    0.98
  WS02004403WS02004404 CONDUIT    567.42     0  02:29      0.74    0.41    0.95
  WS02004402WS02004403 CONDUIT    567.45     0  02:29      0.76    0.82    0.91
  WS02004139WS02001211 CONDUIT    285.32     0  02:00      0.53    0.36    0.51
  WS02004138WS02004139 CONDUIT    285.00     0  01:42      2.39    0.06    0.37
  WS02003067WS02003066 CONDUIT    567.20     0  02:32      1.24    0.18    0.42
  WS02001213WS02003059 CONDUIT    292.69     0  01:55      0.59    0.48    0.68
  WS02001212WS02001213 CONDUIT    292.67     0  02:00      1.19    0.45    0.36
  WS02001211WS02001212 CONDUIT    292.67     0  02:00      0.67    0.22    0.54
  WS02003072WS02003073 CONDUIT    780.43     0  02:36      1.62    1.69    0.44
  WS02003069WS02003072 CONDUIT    780.44     0  02:35      1.53    0.38    0.46
  WS02003060WS02003069 CONDUIT    780.13     0  02:34      1.78    0.31    0.41
  WS02003059WS02003060 CONDUIT    292.78     0  01:54      0.82    0.19    0.59
  HS02004901HS02004770 CONDUIT      9.22     0  02:24      0.05    0.03    0.31
  HS02004876HS02004881 CONDUIT     36.81     0  02:26      0.59    0.39    0.09
  HS02004870HS02004876 CONDUIT     29.40     0  02:26      0.41    0.02    0.10
  HS02004842HS02004848 CONDUIT      6.79     0  02:52      0.04    0.00    0.28
  HS02004837HS02004842 CONDUIT      7.01     0  03:02      0.41    0.00    0.29
  HS02004830HS02004837 CONDUIT     25.65     0  02:26      0.46    0.03    0.08
  HS02004824HS02004830 CONDUIT     25.79     0  02:27      0.49    0.03    0.08
  HS02004817HS02004824 CONDUIT     44.91     0  02:27      0.17    0.02    0.41
  HS02004770HS02004777 CONDUIT     48.37     0  02:24      0.21    0.09    0.33
  HS02004799HS02004480 CONDUIT    123.11     0  02:25      0.58    0.16    0.31
  HS02004792HS02004799 CONDUIT    112.10     0  02:25      0.66    0.07    0.24
  HS02004788HS02004792 CONDUIT     65.23     0  02:26      0.81    0.04    0.11
  HS02004785HS02004788 CONDUIT     48.34     0  02:26      0.49    0.36    0.14
  HS02004777HS02004785 CONDUIT     48.24     0  02:25      0.26    0.06    0.26
  HS02004480HS02004478 CONDUIT    146.06     0  02:26      0.94    0.62    0.22
  HS02004479HS02004480 CONDUIT     23.22     0  02:28      0.27    0.02    0.30
  HS02004862HS02004870 CONDUIT     22.03     0  02:27      0.49    0.02    0.06
  HS02004848HS02004852 CONDUIT      9.33     0  02:26      0.33    0.01    0.04
  HS02004856HS02004862 CONDUIT     14.82     0  02:26      0.35    0.01    0.06
  HS02004852HS02004856 CONDUIT      9.30     0  02:27      0.14    0.01    0.10
  HS02004802HS02004478 CONDUIT     59.19     0  02:29      0.33    0.05    0.26
  HS02004478WS02006287 CONDUIT    204.70     0  02:27      1.31    0.06    0.17
  HS02004817HS02004807 CONDUIT     45.68     0  02:29      0.13    0.03    0.52
  HS02004807HS02004802 CONDUIT     59.00     0  02:28      0.28    0.11    0.31
  YS02001759YS02001757 CONDUIT    385.72     0  03:01      0.49    0.27    1.00
  YS02001762YS02001759 CONDUIT    205.55     0  03:01      0.26    0.24    1.00
  YS02001765YS02001762 CONDUIT    203.32     0  03:01      0.28    0.19    1.00
  YS02001770YS02001767 CONDUIT    201.10     0  03:01      0.26    0.80    1.00
  YS02001774YS02001770 CONDUIT     38.16     0  06:51      0.22    0.02    1.00
  YS02001779YS02001774 CONDUIT     37.86     0  06:51      0.05    0.02    1.00
  YS02001649YS02001757 CONDUIT    625.47     0  03:02      0.80    0.38    1.00
  YS02001767YS02001765 CONDUIT    201.70     0  03:01      0.30    0.25    1.00
  YS02006561YS02001783 CONDUIT    652.15     0  03:03      2.10    0.34    0.60
  YS02001783YS02001784 CONDUIT    648.19     0  03:03      1.58    0.89    0.76
  YS02001784YS02001785 CONDUIT    638.71     0  03:04      1.69    1.49    0.71
  YS02001788YS02001790 CONDUIT    638.18     0  03:02      2.22    0.47    0.56
  YS02001790YS02001791 CONDUIT    637.19     0  03:02      2.61    0.69    0.49
  YS02001791YS02001793 CONDUIT    634.70     0  03:02      5.25    0.27    0.30
  YS02001910YS02001907 CONDUIT    223.92     0  03:02      0.49    0.13    0.91
  YS02001786YS02001788 CONDUIT    636.34     0  03:02      2.13    1.23    0.58
  YS02001915YS02001910 CONDUIT    226.95     0  03:02      0.55    0.11    0.71
  YS02001918YS02001915 CONDUIT     83.03     0  03:02      0.44    0.05    0.43
  YS02001923YS02001920 CONDUIT     64.77     0  03:02      0.57    0.03    0.22
  YS02001926YS02001923 CONDUIT     64.74     0  03:02      0.66    0.09    0.18
  YS02001929YS02001926 CONDUIT     64.92     0  03:01      0.71    0.03    0.17
  YS02001920YS02001918 CONDUIT     74.73     0  03:07      0.57    0.07    0.29
  YS02001629YS02163301 CONDUIT    155.22     0  02:42      0.20    0.19    1.00
  YS02001619YS02001622 CONDUIT    178.16     0  03:03      0.57    0.26    1.00
  YS02001622YS02001625 CONDUIT    230.99     0  03:02      0.31    0.12    1.00
  YS02001625YS02001629 CONDUIT    231.06     0  03:02      0.30    0.11    1.00
  YS02163301YS02001633 CONDUIT    156.00     0  02:42      0.20    0.15    1.00
  YS02163601YS02164001 CONDUIT    285.77     0  03:03      0.36    0.25    1.00
  YS02164001YS02001641 CONDUIT    284.83     0  03:03      0.36    0.39    1.00
  YS02001641YS02001644 CONDUIT    284.25     0  03:03      0.36    0.92    1.00
  YS02001647YS02001649 CONDUIT    424.05     0  02:59      0.54    0.22    1.00
  YS02006553YS02006556 CONDUIT    453.00     0  03:02      0.58    0.39    0.99
  YS02006556YS02006558 CONDUIT    460.47     0  03:06      0.59    0.36    1.00
  YSB6556YSB1171       CONDUIT     13.19     0  02:28      0.06    0.01    0.57
  YS02001907YS02006553 CONDUIT    452.59     0  03:03      0.50    0.53    1.00
  YS02006558YS02006561 CONDUIT    675.49     0  03:03      3.09    1.49    0.73
  YS02001633YS02163601 CONDUIT    286.04     0  03:03      0.36    0.30    1.00
  YS02001644YS02001647 CONDUIT    422.37     0  03:00      0.54    0.25    1.00
  YS02001745YS02001748 CONDUIT    411.09     0  04:15      1.42    0.16    0.70
  YS02001748YS02001751 CONDUIT    477.19     0  02:58      1.00    0.24    1.00
  YS02001751YS02001754 CONDUIT    221.59     0  03:03      0.86    0.11    1.00
  YS02001754YS02001757 CONDUIT    222.39     0  03:15      0.33    0.09    1.00
  YS02001882YS02001884 CONDUIT     11.49     0  03:06      0.09    0.01    0.66
  YS02001884YS02001887 CONDUIT     17.40     0  03:07      0.05    0.02    0.75
  YS02001890YS02001895 CONDUIT    243.69     0  03:02      0.41    0.11    0.71
  YS02001895YS02001898 CONDUIT    243.59     0  03:02      0.53    0.42    0.58
  YS02001898YS02001901 CONDUIT    243.21     0  03:03      0.45    0.16    0.66
  YS02001901YS02001904 CONDUIT    243.30     0  03:03      0.42    0.38    0.70
  YS02001904YS02001907 CONDUIT    255.20     0  03:03      0.36    0.09    0.85
  YS02001887YS02001890 CONDUIT    232.89     0  03:02      0.35    0.40    0.80
  YS02001652YS02001649 CONDUIT    227.56     0  02:54      0.56    0.11    1.00
  YS02001655YS02001652 CONDUIT    229.01     0  02:54      0.91    0.11    1.00
  YS02001658YS02001655 CONDUIT    389.90     0  03:02      1.15    0.17    1.00
  YS02001661YS02001658 CONDUIT    440.23     0  03:55      1.49    0.17    0.74
  YS02001664YS02001661 CONDUIT    163.94     0  03:01      1.43    0.05    0.39
  YSB1154YSB6556       CONDUIT     13.14     0  02:25      0.16    0.02    0.46
  YSB1174YSB1171       CONDUIT     10.08     0  02:23      0.04    0.02    0.57
  YSB1171HS02004479    CONDUIT     23.09     0  02:27      0.54    0.02    0.44
  HS02004881HS02006253 CONDUIT     40.75     0  02:26      1.47    0.01    0.27
  YS02001793JiankangQianchi CONDUIT    638.43     0  03:02     16.40    0.05    0.50
  YS02001757CaochengTiaoxuchi CONDUIT   1110.03     0  03:02      2.13    0.49    1.00
  WSF200WS02003060     CONDUIT    567.19     0  02:33      1.84    0.13    0.32
  1                    CONDUIT    782.25     0  02:36      3.11    0.27    0.36
  2                    CONDUIT    174.79     0  02:27      5.64    0.42    0.45
  3                    CONDUIT    597.65     0  00:00     10.05    0.95    0.86
  4                    CONDUIT      0.00     0  00:00      0.00    0.00    0.00
  CC-Pump-1            PUMP       200.00     0  02:01              1.00
  CC-Pump-2            PUMP       200.00     0  02:20              1.00
  JK-Pump-1            PUMP       300.00     0  00:00              1.00
  JK-Pump-2            PUMP       300.00     0  00:00              1.00
  XR-Pump-1            PUMP        95.00     0  01:40              1.00
  XR-Pump-2            PUMP        95.00     0  00:00              1.00
  XR-Pump-3            PUMP        95.00     0  01:40              1.00
  XR-Pump-4            PUMP        95.00     0  01:40              1.00
  
  
  ***************************
  Flow Classification Summary
  ***************************
  
  -------------------------------------------------------------------------------------
                      Adjusted    ---------- Fraction of Time in Flow Class ---------- 
                       /Actual         Up    Down  Sub   Sup   Up    Down  Norm  Inlet 
  Conduit               Length    Dry  Dry   Dry   Crit  Crit  Crit  Crit  Ltd   Ctrl  
  -------------------------------------------------------------------------------------
  WS02003066WSF200        1.00   0.06  0.00  0.00  0.00  0.94  0.00  0.00  0.58  0.00
  WS02006287WS02006284    1.00   0.03  0.01  0.00  0.58  0.38  0.00  0.00  0.77  0.00
  WS02006284WS02006280    1.00   0.03  0.00  0.00  0.00  0.00  0.00  0.97  0.00  0.00
  WS02006280WS02006229    1.00   0.04  0.00  0.00  0.00  0.00  0.00  0.96  0.00  0.00
  WS02006229WS02006228    1.00   0.00  0.00  0.00  0.99  0.00  0.00  0.01  0.00  0.00
  WS02006256WS02006235    1.00   0.00  0.00  0.00  1.00  0.00  0.00  0.00  0.00  0.00
  WS02006253WS02006251    1.00   0.02  0.01  0.00  0.97  0.00  0.00  0.00  0.00  0.00
  WS02006252WS02006251    1.00   0.07  0.00  0.00  0.00  0.00  0.93  0.00  0.00  0.00
  WS02006251WS02006249    1.00   0.00  0.00  0.00  1.00  0.00  0.00  0.00  0.23  0.00
  WS02006249WS02006248    1.00   0.00  0.02  0.00  0.93  0.00  0.06  0.00  0.00  0.00
  WS02006248WS02006247    1.00   0.02  0.00  0.00  0.98  0.00  0.00  0.01  0.11  0.00
  WS02006247WS02006245    1.00   0.02  0.00  0.00  0.97  0.00  0.00  0.02  0.00  0.00
  WS02006245WS02006243    1.00   0.01  0.00  0.00  0.95  0.00  0.00  0.03  0.02  0.00
  WS02006243WS02006242    1.00   0.01  0.00  0.00  0.99  0.00  0.00  0.00  0.20  0.00
  WS02006242WS02006240    1.00   0.00  0.00  0.00  1.00  0.00  0.00  0.00  0.00  0.00
  WS02006240WS02006239    1.00   0.00  0.00  0.00  0.97  0.00  0.00  0.03  0.02  0.00
  WS02006239WS02006238    1.00   0.00  0.00  0.00  1.00  0.00  0.00  0.00  0.00  0.00
  WS02006238WS02006235    1.00   0.00  0.00  0.00  1.00  0.00  0.00  0.00  0.00  0.00
  WS02006235WS02006234    1.00   0.00  0.00  0.00  0.96  0.00  0.04  0.00  0.00  0.00
  WS02006234WS02006232    1.00   0.00  0.00  0.00  1.00  0.00  0.00  0.00  0.00  0.00
  WS02006232WS02006231    1.00   0.00  0.00  0.00  0.99  0.00  0.01  0.00  0.00  0.00
  WS02006231WS02006230    1.00   0.00  0.00  0.00  0.94  0.00  0.06  0.00  0.00  0.00
  WS02006230WS02006229    1.00   0.00  0.00  0.00  0.99  0.00  0.00  0.01  0.01  0.00
  WS02006228WS02006109    1.00   0.00  0.00  0.00  1.00  0.00  0.00  0.00  0.00  0.00
  WS02006116WS02004401    1.00   0.02  0.00  0.00  0.98  0.00  0.00  0.00  0.00  0.00
  WS02006115WS02006116    1.00   0.02  0.00  0.00  0.97  0.00  0.00  0.01  0.01  0.00
  WS02006113WS02006111    1.00   0.02  0.00  0.00  0.00  0.98  0.00  0.00  0.08  0.00
  WS02006112WS02006115    1.00   0.02  0.00  0.00  0.98  0.00  0.00  0.00  0.00  0.00
  WS02006111WS02006112    1.00   0.02  0.00  0.00  0.98  0.00  0.00  0.00  0.98  0.00
  WS02006110WS02006113    1.00   0.01  0.00  0.00  0.98  0.00  0.00  0.00  0.00  0.00
  WS02006109WS02006110    1.00   0.00  0.01  0.00  0.98  0.00  0.00  0.00  0.00  0.00
  WS02004411WS02004412    1.00   0.04  0.00  0.00  0.96  0.00  0.00  0.00  0.00  0.00
  WS02004401WS02004402    1.00   0.02  0.00  0.00  0.98  0.00  0.00  0.00  0.00  0.00
  WS02004413WS02003067    1.00   0.05  0.01  0.00  0.00  0.00  0.94  0.00  0.00  0.00
  WS02004412WS02004413    1.00   0.04  0.00  0.00  0.95  0.00  0.00  0.00  0.01  0.00
  WS02004410WS02004411    1.00   0.04  0.00  0.00  0.96  0.00  0.00  0.00  0.00  0.00
  WS02004409WS02004410    1.00   0.04  0.00  0.00  0.96  0.00  0.00  0.00  0.00  0.00
  WS02004407WS02004409    1.00   0.04  0.00  0.00  0.95  0.00  0.00  0.00  0.80  0.00
  WS02004406WS02004407    1.00   0.00  0.04  0.00  0.96  0.00  0.00  0.00  0.00  0.00
  WS02004405WS02004406    1.00   0.00  0.00  0.00  1.00  0.00  0.00  0.00  0.02  0.00
  WS02004404WS02004405    1.00   0.00  0.00  0.00  1.00  0.00  0.00  0.00  0.00  0.00
  WS02004403WS02004404    1.00   0.00  0.02  0.00  0.98  0.00  0.00  0.00  0.02  0.00
  WS02004402WS02004403    1.00   0.02  0.00  0.00  0.98  0.00  0.00  0.00  0.00  0.00
  WS02004139WS02001211    1.00   0.00  0.00  0.00  0.99  0.00  0.01  0.00  0.00  0.00
  WS02004138WS02004139    1.00   0.00  0.00  0.00  0.99  0.01  0.00  0.00  1.00  0.00
  WS02003067WS02003066    1.00   0.06  0.01  0.00  0.94  0.00  0.00  0.00  0.00  0.00
  WS02001213WS02003059    1.00   0.00  0.01  0.00  0.99  0.00  0.00  0.00  0.00  0.00
  WS02001212WS02001213    1.00   0.01  0.00  0.00  0.92  0.00  0.07  0.00  0.00  0.00
  WS02001211WS02001212    1.00   0.00  0.01  0.00  0.99  0.00  0.00  0.00  0.00  0.00
  WS02003072WS02003073    1.00   0.00  0.00  0.00  0.00  0.00  0.00  1.00  0.00  0.00
  WS02003069WS02003072    1.00   0.00  0.00  0.00  0.99  0.01  0.00  0.00  0.23  0.00
  WS02003060WS02003069    1.00   0.00  0.00  0.00  0.99  0.01  0.00  0.00  0.17  0.00
  WS02003059WS02003060    1.00   0.00  0.00  0.00  0.99  0.01  0.00  0.00  0.02  0.00
  HS02004901HS02004770    1.00   0.03  0.00  0.00  0.97  0.00  0.00  0.00  0.00  0.00
  HS02004876HS02004881    1.00   0.02  0.00  0.00  0.98  0.00  0.00  0.00  0.00  0.00
  HS02004870HS02004876    1.00   0.01  0.00  0.00  0.99  0.00  0.00  0.00  0.95  0.00
  HS02004842HS02004848    1.00   0.00  0.03  0.00  0.97  0.00  0.00  0.00  0.61  0.00
  HS02004837HS02004842    1.00   0.00  0.00  0.00  0.99  0.01  0.00  0.00  0.11  0.00
  HS02004830HS02004837    1.00   0.00  0.00  0.00  1.00  0.00  0.00  0.00  0.99  0.00
  HS02004824HS02004830    1.00   0.00  0.00  0.00  1.00  0.00  0.00  0.00  0.00  0.00
  HS02004817HS02004824    1.00   0.00  0.00  0.00  1.00  0.00  0.00  0.00  1.00  0.00
  HS02004770HS02004777    1.00   0.00  0.03  0.00  0.97  0.00  0.00  0.00  0.03  0.00
  HS02004799HS02004480    1.00   0.00  0.02  0.00  0.96  0.00  0.02  0.00  0.00  0.00
  HS02004792HS02004799    1.00   0.00  0.00  0.00  0.99  0.01  0.00  0.00  0.98  0.00
  HS02004788HS02004792    1.00   0.00  0.00  0.00  0.99  0.01  0.00  0.00  0.98  0.00
  HS02004785HS02004788    1.00   0.00  0.00  0.00  1.00  0.00  0.00  0.00  0.00  0.00
  HS02004777HS02004785    1.00   0.00  0.00  0.00  1.00  0.00  0.00  0.00  0.13  0.00
  HS02004480HS02004478    1.00   0.03  0.00  0.00  0.64  0.00  0.00  0.33  0.00  0.00
  HS02004479HS02004480    1.00   0.02  0.00  0.00  0.98  0.00  0.00  0.00  0.12  0.00
  HS02004862HS02004870    1.00   0.00  0.00  0.00  1.00  0.00  0.00  0.00  0.06  0.00
  HS02004848HS02004852    1.00   0.03  0.00  0.00  0.97  0.00  0.00  0.00  0.69  0.00
  HS02004856HS02004862    1.00   0.00  0.04  0.00  0.96  0.00  0.00  0.00  0.81  0.00
  HS02004852HS02004856    1.00   0.03  0.00  0.00  0.96  0.00  0.00  0.00  0.86  0.00
  HS02004802HS02004478    1.00   0.03  0.00  0.00  0.96  0.00  0.00  0.00  0.03  0.00
  HS02004478WS02006287    1.00   0.04  0.00  0.00  0.73  0.23  0.00  0.00  0.77  0.00
  HS02004817HS02004807    1.00   0.00  0.03  0.00  0.97  0.00  0.00  0.00  0.01  0.00
  HS02004807HS02004802    1.00   0.03  0.00  0.00  0.96  0.00  0.00  0.00  0.00  0.00
  YS02001759YS02001757    1.00   0.00  0.00  0.00  1.00  0.00  0.00  0.00  0.16  0.00
  YS02001762YS02001759    1.00   0.00  0.00  0.00  1.00  0.00  0.00  0.00  0.03  0.00
  YS02001765YS02001762    1.00   0.00  0.00  0.00  1.00  0.00  0.00  0.00  0.15  0.00
  YS02001770YS02001767    1.00   0.00  0.00  0.00  1.00  0.00  0.00  0.00  0.00  0.00
  YS02001774YS02001770    1.00   0.00  0.03  0.00  0.97  0.00  0.00  0.00  0.03  0.00
  YS02001779YS02001774    1.00   0.00  0.00  0.00  1.00  0.00  0.00  0.00  0.21  0.00
  YS02001649YS02001757    1.00   0.00  0.00  0.00  1.00  0.00  0.00  0.00  0.16  0.00
  YS02001767YS02001765    1.00   0.00  0.00  0.00  1.00  0.00  0.00  0.00  0.01  0.00
  YS02006561YS02001783    1.00   0.05  0.00  0.00  0.00  0.95  0.00  0.00  0.60  0.00
  YS02001783YS02001784    1.00   0.00  0.05  0.00  0.95  0.00  0.00  0.00  0.01  0.00
  YS02001784YS02001785    1.00   0.00  0.00  0.00  1.00  0.00  0.00  0.00  0.19  0.00
  YS02001788YS02001790    1.00   0.00  0.00  0.00  0.05  0.95  0.00  0.00  0.60  0.00
  YS02001790YS02001791    1.00   0.00  0.00  0.00  0.02  0.98  0.00  0.00  0.74  0.00
  YS02001791YS02001793    1.00   0.00  0.00  0.00  0.00  1.00  0.00  0.00  0.00  0.00
  YS02001910YS02001907    1.00   0.00  0.00  0.00  0.98  0.00  0.00  0.02  0.12  0.00
  YS02001786YS02001788    1.00   0.00  0.00  0.00  0.05  0.95  0.00  0.00  0.00  0.00
  YS02001915YS02001910    1.00   0.00  0.00  0.00  0.99  0.01  0.00  0.00  0.18  0.00
  YS02001918YS02001915    1.00   0.00  0.01  0.00  0.99  0.00  0.00  0.00  0.69  0.00
  YS02001923YS02001920    1.00   0.00  0.00  0.00  1.00  0.00  0.00  0.00  1.00  0.00
  YS02001926YS02001923    1.00   0.00  0.02  0.00  0.00  0.00  0.98  0.00  0.00  0.00
  YS02001929YS02001926    1.00   0.00  0.03  0.00  0.97  0.00  0.00  0.00  0.87  0.00
  YS02001920YS02001918    1.00   0.00  0.01  0.00  0.99  0.00  0.00  0.00  0.00  0.00
  YS02001629YS02163301    1.00   0.04  0.00  0.00  0.96  0.00  0.00  0.00  0.00  0.00
  YS02001619YS02001622    1.00   0.03  0.00  0.00  0.97  0.00  0.00  0.00  0.00  0.00
  YS02001622YS02001625    1.00   0.03  0.00  0.00  0.97  0.00  0.00  0.00  0.07  0.00
  YS02001625YS02001629    1.00   0.03  0.01  0.00  0.93  0.00  0.02  0.00  0.00  0.00
  YS02163301YS02001633    1.00   0.00  0.04  0.00  0.96  0.00  0.00  0.00  0.00  0.00
  YS02163601YS02164001    1.00   0.00  0.03  0.00  0.97  0.00  0.00  0.00  0.00  0.00
  YS02164001YS02001641    1.00   0.01  0.02  0.00  0.97  0.00  0.00  0.00  0.06  0.00
  YS02001641YS02001644    1.00   0.00  0.01  0.00  0.99  0.00  0.00  0.00  0.00  0.00
  YS02001647YS02001649    1.00   0.00  0.04  0.00  0.96  0.00  0.00  0.00  0.01  0.00
  YS02006553YS02006556    1.00   0.01  0.00  0.00  0.99  0.00  0.00  0.00  0.03  0.00
  YS02006556YS02006558    1.00   0.00  0.00  0.00  1.00  0.00  0.00  0.00  0.00  0.00
  YSB6556YSB1171          1.00   0.02  0.01  0.00  0.97  0.00  0.00  0.00  0.00  0.00
  YS02001907YS02006553    1.00   0.00  0.01  0.00  0.98  0.00  0.00  0.00  0.00  0.00
  YS02006558YS02006561    1.00   0.05  0.00  0.00  0.00  0.95  0.00  0.00  0.60  0.00
  YS02001633YS02163601    1.00   0.00  0.01  0.00  0.99  0.00  0.00  0.00  0.15  0.00
  YS02001644YS02001647    1.00   0.00  0.04  0.00  0.96  0.00  0.00  0.00  0.00  0.00
  YS02001745YS02001748    1.00   0.00  0.00  0.00  0.87  0.02  0.00  0.12  0.16  0.00
  YS02001748YS02001751    1.00   0.00  0.00  0.00  0.97  0.03  0.00  0.00  0.16  0.00
  YS02001751YS02001754    1.00   0.00  0.00  0.00  0.95  0.00  0.00  0.05  0.02  0.00
  YS02001754YS02001757    1.00   0.00  0.00  0.00  0.99  0.01  0.00  0.00  0.20  0.00
  YS02001882YS02001884    1.00   0.04  0.00  0.00  0.96  0.00  0.00  0.00  0.00  0.00
  YS02001884YS02001887    1.00   0.02  0.01  0.00  0.97  0.00  0.00  0.00  0.00  0.00
  YS02001890YS02001895    1.00   0.00  0.04  0.00  0.96  0.00  0.00  0.00  0.00  0.00
  YS02001895YS02001898    1.00   0.04  0.00  0.00  0.95  0.00  0.01  0.00  0.00  0.00
  YS02001898YS02001901    1.00   0.04  0.00  0.00  0.96  0.00  0.00  0.00  0.03  0.00
  YS02001901YS02001904    1.00   0.04  0.00  0.00  0.96  0.00  0.00  0.00  0.00  0.00
  YS02001904YS02001907    1.00   0.00  0.04  0.00  0.96  0.00  0.00  0.00  0.00  0.00
  YS02001887YS02001890    1.00   0.00  0.00  0.00  0.98  0.00  0.01  0.00  0.00  0.00
  YS02001652YS02001649    1.00   0.00  0.00  0.00  1.00  0.00  0.00  0.00  0.18  0.00
  YS02001655YS02001652    1.00   0.00  0.00  0.00  0.95  0.00  0.00  0.05  0.02  0.00
  YS02001658YS02001655    1.00   0.00  0.04  0.00  0.94  0.03  0.00  0.00  0.12  0.00
  YS02001661YS02001658    1.00   0.04  0.00  0.00  0.87  0.10  0.00  0.00  0.23  0.00
  YS02001664YS02001661    1.00   0.03  0.00  0.00  0.81  0.16  0.00  0.00  0.74  0.00
  YSB1154YSB6556          1.00   0.03  0.00  0.00  0.97  0.00  0.00  0.00  0.02  0.00
  YSB1174YSB1171          1.00   0.02  0.01  0.00  0.97  0.00  0.00  0.00  0.00  0.00
  YSB1171HS02004479       1.00   0.02  0.00  0.00  0.98  0.00  0.00  0.00  0.10  0.00
  HS02004881HS02006253    1.00   0.02  0.00  0.00  0.93  0.00  0.00  0.05  0.75  0.00
  YS02001793JiankangQianchi    1.00   0.00  0.00  0.00  0.01  0.99  0.00  0.00  0.01  0.00
  YS02001757CaochengTiaoxuchi    1.00   0.00  0.06  0.00  0.93  0.01  0.00  0.00  0.00  0.00
  WSF200WS02003060        1.00   0.00  0.06  0.00  0.04  0.90  0.00  0.00  0.03  0.00
  1                       1.00   0.00  0.00  0.00  0.00  1.00  0.00  0.00  0.07  0.00
  2                       1.00   0.08  0.00  0.00  0.00  0.92  0.00  0.00  0.01  0.00
  3                       1.00   0.04  0.00  0.00  0.00  0.96  0.00  0.00  0.00  0.00
  4                       1.00   1.00  0.00  0.00  0.00  0.00  0.00  0.00  0.00  0.00
  
  
  *************************
  Conduit Surcharge Summary
  *************************
  
  ----------------------------------------------------------------------------
                                                           Hours        Hours 
                         --------- Hours Full --------   Above Full   Capacity
  Conduit                Both Ends  Upstream  Dnstream   Normal Flow   Limited
  ----------------------------------------------------------------------------
  WS02006229WS02006228        5.79      5.79      5.79      5.89         5.79
  WS02006256WS02006235        6.06      6.06      7.83      0.38         0.01
  WS02006252WS02006251        5.59      5.59      5.79      5.73         0.01
  WS02006251WS02006249        0.01      0.01      0.01      5.63         0.01
  WS02006249WS02006248        0.01      0.01      0.01      5.86         0.01
  WS02006247WS02006245        0.01      0.01      0.01      5.86         0.01
  WS02006245WS02006243        0.01      0.01      0.77      0.01         0.01
  WS02006243WS02006242        0.88      0.88      5.75      0.01         0.01
  WS02006242WS02006240        1.61      1.61      5.76      5.76         0.01
  WS02006240WS02006239        2.48      2.48      2.96      0.01         0.01
  WS02006239WS02006238        5.76      5.76      5.77      0.01         0.01
  WS02006238WS02006235        5.77      5.77      5.77      0.01         0.01
  WS02006235WS02006234        1.39      1.39      5.76      6.09         0.01
  WS02006234WS02006232        2.50      2.50      5.78      0.01         0.01
  WS02006232WS02006231        0.36      0.36      5.78      0.01         0.01
  WS02006231WS02006230        0.01      0.01      0.77      6.05         0.01
  WS02006230WS02006229        5.80      5.81      5.80      6.13         5.80
  WS02006228WS02006109        5.79      5.79      5.79      5.98         5.79
  WS02006112WS02006115        0.01      0.01      1.17      0.01         0.01
  WS02006111WS02006112        0.01      0.01      5.83      0.01         0.01
  WS02006110WS02006113        0.01      0.01      5.79      0.01         0.01
  WS02006109WS02006110        0.91      0.91      5.79      0.91         0.01
  WS02004405WS02004406        0.01      0.01      0.01      1.08         0.01
  WS02004404WS02004405        0.01      0.01      0.01      5.99         0.01
  WS02003072WS02003073        0.01      0.01      0.01      5.81         0.01
  YS02001759YS02001757        5.53      5.53      5.64      0.01         0.01
  YS02001762YS02001759        5.50      5.50      5.53      0.01         0.02
  YS02001765YS02001762        5.31      5.31      5.50      0.01         0.01
  YS02001770YS02001767        5.04      5.04      5.07      0.01         0.85
  YS02001774YS02001770        4.86      4.86      5.45      0.01         0.01
  YS02001779YS02001774        3.97      3.97      5.45      0.01         0.01
  YS02001649YS02001757        5.51      5.51      5.64      0.01         0.01
  YS02001767YS02001765        5.07      5.07      5.31      0.01         0.02
  YS02001784YS02001785        0.01      0.01      0.01      1.11         0.01
  YS02001910YS02001907        0.01      0.01      0.24      0.01         0.01
  YS02001786YS02001788        0.01      0.01      0.01      0.58         0.01
  YS02001629YS02163301        4.75      4.75      4.96      0.01         0.01
  YS02001619YS02001622        1.78      1.78      2.22      0.01         0.04
  YS02001622YS02001625        2.22      2.22      4.53      0.01         0.01
  YS02001625YS02001629        1.85      1.85      4.53      0.01         0.01
  YS02163301YS02001633        4.96      4.96      5.31      0.01         0.01
  YS02163601YS02164001        5.30      5.30      5.51      0.01         0.01
  YS02164001YS02001641        5.30      5.30      5.39      0.01         0.01
  YS02001641YS02001644        5.39      5.39      5.41      0.01         1.00
  YS02001647YS02001649        4.45      4.45      5.51      0.01         0.01
  YS02006553YS02006556        0.01      0.01      0.35      0.01         0.01
  YS02006556YS02006558        0.02      0.02      0.49      0.01         0.01
  YS02001907YS02006553        1.12      1.12      1.35      0.01         0.01
  YS02006558YS02006561        0.01      0.01      0.01      0.94         0.01
  YS02001633YS02163601        5.21      5.21      5.51      0.01         0.01
  YS02001644YS02001647        4.45      4.45      5.41      0.01         0.01
  YS02001745YS02001748        0.01      0.01      0.01      0.01         0.01
  YS02001748YS02001751        0.36      0.36      2.27      0.01         0.01
  YS02001751YS02001754        2.27      2.27      4.14      0.01         0.01
  YS02001754YS02001757        4.42      4.42      5.64      0.01         0.01
  YS02001904YS02001907        0.01      0.01      0.40      0.01         0.01
  YS02001652YS02001649        4.51      4.51      5.51      0.01         0.01
  YS02001655YS02001652        2.66      2.66      4.34      0.01         0.01
  YS02001658YS02001655        0.01      0.01      2.66      0.01         0.01
  YS02001661YS02001658        0.01      0.01      0.01      0.01         0.01
  YS02001793JiankangQianchi        0.01      0.01      0.04      0.01         0.01
  YS02001757CaochengTiaoxuchi        0.54      0.54      5.64      0.01         0.01
  3                           0.01      0.01      0.01      0.01         0.01
  
  
  ***************
  Pumping Summary
  ***************
  
  ---------------------------------------------------------------------------------------------------------
                                                  Min       Avg       Max     Total     Power    % Time Off
                        Percent   Number of      Flow      Flow      Flow    Volume     Usage    Pump Curve
  Pump                 Utilized   Start-Ups       LPS       LPS       LPS  10^6 ltr     Kw-hr    Low   High
  ---------------------------------------------------------------------------------------------------------
  CC-Pump-1               75.61           1      0.00    198.33    200.00     4.225     13.12    0.0   16.0
  CC-Pump-2               75.61           1      0.00    191.89    200.00     4.106     12.58    0.0   16.0
  JK-Pump-1              100.00           1      0.00    206.29    300.00     4.428     87.67    0.0    0.0
  JK-Pump-2              100.00           1      0.00    206.29    300.00     4.428     87.67    0.0    0.0
  XR-Pump-1                8.50           1      0.00     69.57     95.00     0.171      0.86    0.0    0.0
  XR-Pump-2               93.62           2      0.00     93.19     95.00     2.451     12.15    0.0    0.0
  XR-Pump-3               10.63           1      0.00     77.06     95.00     0.228      1.13    0.0    0.0
  XR-Pump-4               80.84           1      0.00     91.75     95.00     2.080      9.52    0.0    0.0
  

  Analysis begun on:  Tue Jan  4 18:19:54 2022
  Analysis ended on:  Tue Jan  4 18:19:58 2022
  Total elapsed time: 00:00:04