
  EPA STORM WATER MANAGEMENT MODEL - VERSION 5.1 (Build 5.3.0.dev0)
  --------------------------------------------------------------

  WARNING 04: minimum elevation drop used for Conduit WS02004404WS02004405
  WARNING 03: negative offset ignored for Link YS02001904YS02001907
  
  *********************************************************
  NOTE: The summary statistics displayed in this report are
  based on results found at every computational time step,  
  not just on results from each reporting time step.
  *********************************************************
  
  ****************
  Analysis Options
  ****************
  Flow Units ............... LPS
  Process Models:
    Rainfall/Runoff ........ YES
    RDII ................... NO
    Snowmelt ............... NO
    Groundwater ............ NO
    Flow Routing ........... YES
    Ponding Allowed ........ NO
    Water Quality .......... NO
  Infiltration Method ...... HORTON
  Flow Routing Method ...... DYNWAVE
  Surcharge Method ......... EXTRAN
  Starting Date ............ 08/28/2015 08:00:00
  Ending Date .............. 08/28/2015 15:50:00
  Antecedent Dry Days ...... 8.0
  Report Time Step ......... 00:01:00
  Wet Time Step ............ 00:01:00
  Dry Time Step ............ 00:01:00
  Routing Time Step ........ 5.00 sec
  Variable Time Step ....... YES
  Maximum Trials ........... 8
  Number of Threads ........ 4
  Head Tolerance ........... 0.001500 m
  
  
  **************************        Volume         Depth
  Runoff Quantity Continuity     hectare-m            mm
  **************************     ---------       -------
  Total Precipitation ......         5.556        12.164
  Evaporation Loss .........         0.000         0.000
  Infiltration Loss ........         1.427         3.124
  Surface Runoff ...........         3.072         6.726
  Final Storage ............         1.058         2.316
  Continuity Error (%) .....        -0.016
  
  
  **************************        Volume        Volume
  Flow Routing Continuity        hectare-m      10^6 ltr
  **************************     ---------     ---------
  Dry Weather Inflow .......         0.616         6.165
  Wet Weather Inflow .......         3.071        30.708
  Groundwater Inflow .......         0.000         0.000
  RDII Inflow ..............         0.000         0.000
  External Inflow ..........         0.102         1.024
  External Outflow .........         1.414        14.144
  Flooding Loss ............         1.805        18.055
  Evaporation Loss .........         0.000         0.000
  Exfiltration Loss ........         0.000         0.000
  Initial Stored Volume ....         0.076         0.761
  Final Stored Volume ......         0.650         6.497
  Continuity Error (%) .....        -0.100
  
  
  *************************
  Highest Continuity Errors
  *************************
  Node HS02004842 (16.24%)
  Node YS02001884 (11.42%)
  Node YSB1171 (3.12%)
  Node HS02004817 (2.99%)
  Node HS02004901 (2.32%)
  
  
  ***************************
  Time-Step Critical Elements
  ***************************
  Link 3 (60.96%)
  Link WS02006252WS02006251 (32.30%)
  Link WS02006280WS02006229 (1.79%)
  
  
  ********************************
  Highest Flow Instability Indexes
  ********************************
  Link WS02006113WS02006111 (46)
  Link YS02163301YS02001633 (41)
  Link YS02163601YS02164001 (40)
  Link YS02001629YS02163301 (40)
  Link YS02001619YS02001622 (39)
  
  
  *************************
  Routing Time Step Summary
  *************************
  Minimum Time Step           :     0.50 sec
  Average Time Step           :     0.85 sec
  Maximum Time Step           :     5.00 sec
  Percent in Steady State     :    -0.00
  Average Iterations per Step :     4.43
  Percent Not Converging      :    18.28
  
  
  ***************************
  Subcatchment Runoff Summary
  ***************************
  
  ------------------------------------------------------------------------------------------------------------------------------
                            Total      Total      Total      Total     Imperv       Perv      Total       Total     Peak  Runoff
                           Precip      Runon       Evap      Infil     Runoff     Runoff     Runoff      Runoff   Runoff   Coeff
  Subcatchment                 mm         mm         mm         mm         mm         mm         mm    10^6 ltr      LPS
  ------------------------------------------------------------------------------------------------------------------------------
  sub0                      12.16       0.00       0.00       0.85      10.05       0.00      10.05        0.01     1.91   0.826
  sub1                      12.16       0.00       0.00       1.34       9.56       0.00       9.56        0.06    14.15   0.786
  sub2                      12.16       0.00       0.00       4.50       6.75       0.00       6.75        0.06    13.75   0.555
  sub3                      12.16       0.00       0.00       4.50       6.71       0.00       6.71        0.15    32.07   0.552
  sub4                      12.16       0.00       0.00       1.34       9.40       0.00       9.40        0.20    40.20   0.773
  sub5                      12.16       0.00       0.00       0.85       9.99       0.00       9.99        0.11    25.19   0.822
  sub7                      12.16       0.00       0.00       1.09       9.81       0.00       9.81        0.03     7.55   0.807
  sub8                      12.16       0.00       0.00       1.09       9.80       0.00       9.80        0.06    14.17   0.806
  sub9                      12.16       0.00       0.00       1.09       9.80       0.00       9.80        0.05    10.64   0.806
  sub10                     12.16       0.00       0.00       0.97       9.89       0.00       9.89        0.11    24.40   0.813
  sub11                     12.16       0.00       0.00       0.97       9.91       0.00       9.91        0.12    26.15   0.815
  sub12                     12.16       0.00       0.00       1.58       9.39       0.00       9.39        0.08    19.06   0.772
  sub14                     12.16       0.00       0.00       1.09       9.80       0.00       9.80        0.09    21.02   0.805
  sub15                     12.16       0.00       0.00       3.65       7.53       0.00       7.53        0.13    29.11   0.619
  sub16                     12.16       0.00       0.00       4.01       7.23       0.00       7.23        0.08    17.47   0.594
  sub17                     12.16       0.00       0.00       3.89       7.34       0.00       7.34        0.06    14.47   0.603
  sub22                     12.16       0.00       0.00       5.23       6.14       0.00       6.14        0.39    88.27   0.505
  sub23                     12.16       0.00       0.00       4.50       6.79       0.00       6.79        0.32    73.89   0.558
  sub60                     12.16       0.00       0.00       1.46       7.71       0.00       7.71        2.34   297.17   0.634
  sub61                     12.16       0.00       0.00       2.07       7.87       0.00       7.87        2.43   359.80   0.647
  sub62                     12.16       0.00       0.00       0.97       8.55       0.00       8.55        2.63   372.87   0.703
  sub63                     12.16       0.00       0.00       3.53       6.89       0.00       6.89        2.09   327.80   0.567
  sub64                     12.16       0.00       0.00       1.82       7.40       0.00       7.40        2.25   282.66   0.608
  sub65                     12.16       0.00       0.00       1.58       7.52       0.00       7.52        2.31   287.20   0.618
  sub66                     12.16       0.00       0.00       3.53       6.36       0.00       6.36        1.95   257.27   0.523
  sub67                     12.16       0.00       0.00       0.97       9.05       0.00       9.05        2.79   452.90   0.744
  sub68                     12.16       0.00       0.00       1.70       8.28       0.00       8.28        2.55   391.99   0.681
  sub69                     12.16       0.00       0.00       1.82       8.61       0.00       8.61        2.01   355.79   0.708
  sub70                     12.16       8.79       0.00       7.03      11.43       0.10      11.53        2.64   335.00   0.550
  sub71                     12.16       0.00       0.00       0.97       8.31       0.00       8.31        1.96   263.63   0.683
  sub72                     12.16       0.00       0.00       0.85       6.56       0.00       6.56        1.34   129.40   0.540
  sub73                     12.16      11.23       0.00       7.88      12.47       0.08      12.54        2.95   300.52   0.536
  sub74                     12.16       0.00       0.00       9.12       2.57       0.00       2.57        1.03   189.59   0.211
  
  
  ******************
  Node Depth Summary
  ******************
  
  ---------------------------------------------------------------------------------
                                 Average  Maximum  Maximum  Time of Max    Reported
                                   Depth    Depth      HGL   Occurrence   Max Depth
  Node                 Type       Meters   Meters   Meters  days hr:min      Meters
  ---------------------------------------------------------------------------------
  WS02001211           JUNCTION     0.56     0.64     5.48     0  03:23        0.64
  WS02001212           JUNCTION     0.31     0.38     5.44     0  03:23        0.38
  WS02001213           JUNCTION     0.54     0.64     5.40     0  03:21        0.64
  WS02003069           JUNCTION     0.38     0.52     5.11     0  03:07        0.52
  WS02003072           JUNCTION     0.44     0.58     4.95     0  03:08        0.58
  WS02003073           JUNCTION     0.26     0.36     4.42     0  03:08        0.36
  WS02003060           JUNCTION     0.34     0.46     5.39     0  03:07        0.46
  WS02003066           JUNCTION     0.22     0.32     5.88     0  03:06        0.32
  WS02003059           JUNCTION     0.60     0.71     5.40     0  03:07        0.71
  WS02003067           JUNCTION     0.55     0.74     6.06     0  03:06        0.74
  WS02004401           JUNCTION     0.65     0.97     6.97     0  03:04        0.97
  WS02004402           JUNCTION     0.68     0.99     6.95     0  03:04        0.99
  WS02004403           JUNCTION     0.70     0.99     6.92     0  03:04        0.99
  WS02004404           JUNCTION     0.78     1.05     6.90     0  03:04        1.05
  WS02004406           JUNCTION     0.78     1.03     6.86     0  03:04        1.03
  WS02004409           JUNCTION     0.46     0.75     6.52     0  03:05        0.75
  WS02004410           JUNCTION     0.48     0.76     6.48     0  03:05        0.76
  WS02004411           JUNCTION     0.50     0.76     6.44     0  03:05        0.76
  WS02004412           JUNCTION     0.52     0.76     6.40     0  03:06        0.76
  WS02004413           JUNCTION     0.67     0.91     6.38     0  03:06        0.91
  WS02004405           JUNCTION     0.77     1.04     6.89     0  03:04        1.04
  WS02006109           JUNCTION     0.73     1.10     7.72     0  03:02        1.08
  WS02006110           JUNCTION     0.72     1.01     7.60     0  03:03        1.00
  WS02006111           JUNCTION     0.21     0.35     7.05     0  03:04        0.34
  WS02006112           JUNCTION     0.81     1.19     7.08     0  02:37        1.18
  WS02006113           JUNCTION     0.32     0.51     7.40     0  03:03        0.51
  WS02006115           JUNCTION     0.54     0.88     7.02     0  03:04        0.88
  WS02006116           JUNCTION     0.62     0.96     7.00     0  03:04        0.95
  WS02006230           JUNCTION     0.68     1.16     7.90     0  03:02        1.16
  WS02006231           JUNCTION     0.45     0.81     7.94     0  03:01        0.81
  WS02006232           JUNCTION     0.58     0.93     7.97     0  03:02        0.92
  WS02006234           JUNCTION     0.49     0.84     8.00     0  03:01        0.84
  WS02006235           JUNCTION     0.51     0.86     8.03     0  03:01        0.86
  WS02006238           JUNCTION     0.54     0.89     8.03     0  03:02        0.88
  WS02006240           JUNCTION     0.41     0.77     8.07     0  03:02        0.77
  WS02006242           JUNCTION     0.45     0.82     8.09     0  03:02        0.82
  WS02006243           JUNCTION     0.32     0.70     8.12     0  03:02        0.70
  WS02006245           JUNCTION     0.28     0.65     8.14     0  03:02        0.65
  WS02006247           JUNCTION     0.29     0.65     8.15     0  03:02        0.65
  WS02006248           JUNCTION     0.25     0.57     8.16     0  03:02        0.57
  WS02006249           JUNCTION     0.28     0.58     8.18     0  03:02        0.58
  WS02006239           JUNCTION     0.48     0.84     8.05     0  03:02        0.84
  WS02006251           JUNCTION     0.26     0.55     8.22     0  03:01        0.55
  WS02006252           JUNCTION     0.21     0.35     8.59     0  01:59        0.35
  WS02006253           JUNCTION     0.29     0.58     8.22     0  03:01        0.58
  WS02006256           JUNCTION     1.06     1.15     8.09     0  00:00        1.13
  WS02004138           JUNCTION     0.11     0.14     7.39     0  03:23        0.14
  WS02004407           JUNCTION     0.21     0.33     6.64     0  03:05        0.33
  WS02006228           JUNCTION     0.72     1.16     7.82     0  03:01        1.16
  WS02006229           JUNCTION     0.70     1.17     7.87     0  03:02        1.17
  WS02006280           JUNCTION     0.07     0.19     8.46     0  03:02        0.19
  WS02006284           JUNCTION     0.37     0.55     8.95     0  03:02        0.55
  WS02006287           JUNCTION     0.11     0.28     9.24     0  03:01        0.28
  WSF200               JUNCTION     0.20     0.33     5.57     0  03:06        0.33
  HS02004901           JUNCTION     0.13     0.28    10.10     0  03:01        0.28
  HS02004881           JUNCTION     0.01     0.04     9.07     0  03:01        0.04
  HS02004876           JUNCTION     0.05     0.12     9.15     0  03:01        0.12
  HS02004870           JUNCTION     0.02     0.06     9.35     0  03:01        0.06
  HS02004862           JUNCTION     0.02     0.07     9.46     0  03:01        0.07
  HS02004856           JUNCTION     0.08     0.13     9.55     0  03:01        0.13
  HS02004852           JUNCTION     0.01     0.05     9.56     0  03:01        0.05
  HS02004848           JUNCTION     0.01     0.05     9.65     0  03:01        0.05
  HS02004842           JUNCTION     0.33     0.38     9.65     0  03:01        0.38
  HS02004837           JUNCTION     0.03     0.07     9.65     0  03:01        0.07
  HS02004830           JUNCTION     0.04     0.08     9.55     0  03:01        0.08
  HS02004824           JUNCTION     0.03     0.06     9.46     0  03:01        0.06
  HS02004817           JUNCTION     0.44     0.60     9.44     0  03:01        0.60
  HS02004807           JUNCTION     0.13     0.27     9.44     0  03:01        0.27
  HS02004802           JUNCTION     0.17     0.30     9.43     0  03:01        0.30
  HS02004799           JUNCTION     0.13     0.33     9.54     0  03:01        0.33
  HS02004792           JUNCTION     0.04     0.14     9.66     0  03:01        0.14
  HS02004788           JUNCTION     0.03     0.10    10.00     0  03:01        0.10
  HS02004785           JUNCTION     0.05     0.17    10.07     0  03:01        0.17
  HS02004777           JUNCTION     0.15     0.30    10.10     0  03:01        0.30
  HS02004770           JUNCTION     0.12     0.27    10.10     0  03:01        0.27
  HS02004480           JUNCTION     0.09     0.26     9.50     0  03:01        0.26
  HS02004479           JUNCTION     0.12     0.30     9.50     0  03:01        0.30
  HS02004478           JUNCTION     0.07     0.18     9.41     0  03:01        0.18
  YS02001745           JUNCTION     0.70     0.89     8.41     0  03:29        0.89
  YS02001748           JUNCTION     1.08     1.65     8.73     0  02:44        1.33
  YS02001751           JUNCTION     1.26     1.67     8.55     0  02:37        1.54
  YS02001754           JUNCTION     1.52     1.83     8.43     0  03:25        1.81
  YS02001762           JUNCTION     1.72     2.04     8.44     0  03:29        2.03
  YS02001765           JUNCTION     1.67     1.98     8.43     0  03:36        1.98
  YS02001767           JUNCTION     1.63     1.94     8.43     0  03:36        1.93
  YS02001770           JUNCTION     1.63     1.91     8.41     0  03:36        1.91
  YS02001774           JUNCTION     1.70     1.98     8.40     0  03:34        1.97
  YS02001779           JUNCTION     1.44     1.68     8.37     0  02:44        1.68
  YS02001882           JUNCTION     0.53     1.61     8.33     0  02:59        1.60
  YS02001884           JUNCTION     0.62     1.71     8.33     0  03:00        1.70
  YS02001759           JUNCTION     1.75     2.07     8.44     0  03:27        2.06
  YS02001887           JUNCTION     0.70     1.79     8.32     0  03:01        1.78
  YS02001890           JUNCTION     0.73     1.81     8.31     0  02:59        1.79
  YS02001898           JUNCTION     0.50     1.55     8.29     0  03:00        1.55
  YS02001901           JUNCTION     0.62     1.67     8.28     0  02:56        1.66
  YS02001904           JUNCTION     0.60     1.64     8.27     0  02:59        1.63
  YS02001907           JUNCTION     0.92     1.96     8.25     0  02:52        1.96
  YS02001910           JUNCTION     0.72     1.78     8.29     0  02:54        1.77
  YS02001915           JUNCTION     0.52     1.59     8.30     0  02:54        1.58
  YS02001918           JUNCTION     0.27     1.26     8.33     0  02:53        1.25
  YS02001619           JUNCTION     1.23     1.61     8.54     0  02:34        1.47
  YS02001629           JUNCTION     1.58     1.85     8.40     0  02:40        1.84
  YS02001641           JUNCTION     1.68     1.98     8.42     0  02:42        1.93
  YS02001644           JUNCTION     1.68     1.92     8.35     0  02:42        1.92
  YS02001652           JUNCTION     1.53     2.15     8.75     0  03:03        2.02
  YS02001655           JUNCTION     1.29     2.20     9.05     0  02:56        2.08
  YS02001920           JUNCTION     0.36     1.34     8.35     0  02:53        1.33
  YS02001923           JUNCTION     0.21     1.10     8.36     0  02:53        1.09
  YS02001926           JUNCTION     0.26     0.91     8.36     0  02:53        0.89
  YS02001929           JUNCTION     0.14     0.69     8.39     0  02:53        0.67
  YS02001658           JUNCTION     1.03     2.30     9.44     0  02:58        2.12
  YS02001661           JUNCTION     0.80     2.46     9.86     0  02:58        2.19
  YS02001664           JUNCTION     0.36     0.57     8.50     0  02:53        0.56
  YS02001622           JUNCTION     1.25     1.62     8.52     0  02:34        1.50
  YS02001633           JUNCTION     1.67     2.00     8.46     0  02:42        1.94
  YS02001649           JUNCTION     1.72     2.05     8.44     0  02:54        2.05
  YS02001757           JUNCTION     1.85     2.18     8.44     0  03:28        2.16
  YS02001895           JUNCTION     0.50     1.56     8.30     0  03:00        1.55
  YS02001625           JUNCTION     1.53     1.78     8.38     0  02:39        1.78
  YS02163301           JUNCTION     1.61     1.93     8.45     0  02:41        1.87
  YS02163601           JUNCTION     1.72     2.07     8.47     0  02:42        1.98
  YS02164001           JUNCTION     1.66     2.00     8.46     0  02:42        1.91
  YS02001647           JUNCTION     1.51     1.81     8.42     0  02:42        1.79
  YSB1154              JUNCTION     0.26     0.45     9.51     0  03:01        0.45
  YSB6556              JUNCTION     0.16     0.34     9.51     0  03:01        0.34
  YSB1174              JUNCTION     0.22     0.40     9.51     0  03:01        0.40
  YSB1171              JUNCTION     0.41     0.60     9.51     0  03:01        0.60
  YS02006553           JUNCTION     0.93     1.96     8.25     0  02:57        1.96
  YS02006561           JUNCTION     0.31     1.08     7.74     0  02:58        1.07
  YS02006556           JUNCTION     0.89     1.92     8.23     0  02:58        1.91
  YS02006558           JUNCTION     0.94     1.96     8.23     0  02:59        1.95
  YS02001783           JUNCTION     0.54     1.65     7.79     0  02:37        1.46
  YS02001784           JUNCTION     0.57     1.81     7.88     0  02:37        1.41
  YS02001786           JUNCTION     0.52     2.08     8.11     0  02:37        1.25
  YS02001788           JUNCTION     0.46     2.28     8.26     0  02:37        1.12
  YS02001790           JUNCTION     0.60     1.96     7.60     0  02:36        1.29
  YS02001791           JUNCTION     0.60     1.80     7.27     0  02:37        1.27
  YS02001793           JUNCTION     0.87     2.57     7.40     0  02:34        1.80
  WS02004139           JUNCTION     0.50     0.58     5.49     0  03:24        0.58
  WSC                  OUTFALL      0.26     0.36     1.03     0  03:09        0.36
  3                    OUTFALL      0.09     0.13     6.13     0  03:02        0.13
  4                    OUTFALL      0.01     0.08     7.08     0  03:02        0.08
  5                    OUTFALL      0.00     0.00     5.00     0  00:00        0.00
  JK-storage           STORAGE      3.17     5.80     6.60     0  02:37        5.80
  CC-storage           STORAGE      1.08     1.40     8.40     0  03:26        1.40
  XR-storage           STORAGE      7.64     7.72     5.72     0  00:51        7.72
  
  
  *******************
  Node Inflow Summary
  *******************
  
  -------------------------------------------------------------------------------------------------
                                  Maximum  Maximum                  Lateral       Total        Flow
                                  Lateral    Total  Time of Max      Inflow      Inflow     Balance
                                   Inflow   Inflow   Occurrence      Volume      Volume       Error
  Node                 Type           LPS      LPS  days hr:min    10^6 ltr    10^6 ltr     Percent
  -------------------------------------------------------------------------------------------------
  WS02001211           JUNCTION      7.35   199.38     0  03:33       0.207        3.78       0.656
  WS02001212           JUNCTION      0.00   201.41     0  03:33           0        3.76       0.283
  WS02001213           JUNCTION      0.00   203.14     0  03:32           0        3.75       0.513
  WS02003069           JUNCTION      0.32   774.90     0  03:07     0.00902        10.9       0.217
  WS02003072           JUNCTION      0.00   774.70     0  03:07           0        10.9       0.277
  WS02003073           JUNCTION      1.82   776.36     0  03:08      0.0514        10.9       0.303
  WS02003060           JUNCTION     16.53   774.63     0  03:06       0.466        10.9       0.208
  WS02003066           JUNCTION      0.00   657.98     0  03:06           0        6.78       0.066
  WS02003059           JUNCTION      0.00   206.74     0  03:31           0        3.73       0.903
  WS02003067           JUNCTION      0.00   657.93     0  03:06           0        6.79       0.140
  WS02004401           JUNCTION      0.00   659.31     0  03:04           0        7.03       0.311
  WS02004402           JUNCTION      0.00   659.19     0  03:04           0        7.01       0.293
  WS02004403           JUNCTION      0.00   658.89     0  03:04           0        6.99       0.266
  WS02004404           JUNCTION      0.16   658.73     0  03:05     0.00457        6.97       0.200
  WS02004406           JUNCTION      0.00   658.84     0  03:05           0        6.94       0.488
  WS02004409           JUNCTION      0.00   658.77     0  03:05           0         6.9       0.243
  WS02004410           JUNCTION      0.00   658.42     0  03:05           0        6.88       0.274
  WS02004411           JUNCTION      0.00   658.22     0  03:05           0        6.86       0.281
  WS02004412           JUNCTION      0.00   658.11     0  03:05           0        6.84       0.302
  WS02004413           JUNCTION      0.00   657.99     0  03:06           0        6.82       0.446
  WS02004405           JUNCTION      0.04   658.78     0  03:05     0.00107        6.96       0.299
  WS02006109           JUNCTION      1.23   650.44     0  03:01      0.0347        7.09       0.309
  WS02006110           JUNCTION      0.00   650.43     0  03:01           0        7.07       0.285
  WS02006111           JUNCTION      0.00   684.71     0  03:03           0        7.04       0.065
  WS02006112           JUNCTION     14.47   662.79     0  03:01      0.0629         7.1       0.420
  WS02006113           JUNCTION      0.00   652.18     0  03:02           0        7.05       0.141
  WS02006115           JUNCTION      0.00   663.50     0  03:01           0        7.07       0.292
  WS02006116           JUNCTION      0.00   660.46     0  03:02           0        7.05       0.277
  WS02006230           JUNCTION     10.28   331.29     0  03:14        0.29        5.21       0.240
  WS02006231           JUNCTION      0.00   318.17     0  03:14           0        4.93       0.261
  WS02006232           JUNCTION      0.00   318.07     0  03:14           0        4.95       0.334
  WS02006234           JUNCTION      0.00   316.13     0  03:13           0        4.96       0.172
  WS02006235           JUNCTION      0.00   315.95     0  03:13           0           5       0.215
  WS02006238           JUNCTION      0.00   242.75     0  03:12           0        2.53       0.316
  WS02006240           JUNCTION      0.00   239.96     0  03:11           0        2.53       0.483
  WS02006242           JUNCTION      0.00   239.71     0  03:11           0        2.53       0.578
  WS02006243           JUNCTION      0.00   237.16     0  03:10           0        2.53       0.244
  WS02006245           JUNCTION      0.00   238.65     0  02:15           0        2.54       0.352
  WS02006247           JUNCTION      0.00   240.84     0  02:15           0        2.55       0.260
  WS02006248           JUNCTION      0.00   242.97     0  02:15           0        2.55       0.158
  WS02006249           JUNCTION      0.00   280.79     0  03:01           0        2.67       0.396
  WS02006239           JUNCTION      0.00   242.58     0  03:12           0        2.53       0.470
  WS02006251           JUNCTION      0.08   280.85     0  03:01     0.00217        2.69       0.321
  WS02006252           JUNCTION      0.00   200.00     0  01:59           0        2.32       0.018
  WS02006253           JUNCTION      1.91    81.00     0  03:01     0.00814       0.368       1.133
  WS02006256           JUNCTION      0.00   300.00     0  03:10           0        5.64       0.052
  WS02004138           JUNCTION      0.00   190.00     0  03:20           0        3.59       0.068
  WS02004407           JUNCTION      0.00   658.89     0  03:05           0         6.9       0.110
  WS02006228           JUNCTION      0.00   649.31     0  03:01           0        7.07       0.221
  WS02006229           JUNCTION      0.00   648.72     0  03:02           0        7.08       0.175
  WS02006280           JUNCTION      0.00   375.54     0  03:02           0        1.89       0.004
  WS02006284           JUNCTION      0.10   375.54     0  03:02      0.0027        1.89       0.064
  WS02006287           JUNCTION      0.00   375.27     0  03:01           0        1.89       0.038
  WSF200               JUNCTION      0.00   658.00     0  03:06           0        6.78       0.063
  HS02004901           JUNCTION     17.47    17.47     0  03:01      0.0757      0.0759       2.380
  HS02004881           JUNCTION      7.55    79.19     0  03:01      0.0331       0.357       0.030
  HS02004876           JUNCTION     14.15    72.10     0  03:01      0.0636       0.324       0.171
  HS02004870           JUNCTION     14.17    58.27     0  03:01      0.0626       0.261       0.043
  HS02004862           JUNCTION     13.95    44.46     0  03:01      0.0685       0.198       0.089
  HS02004856           JUNCTION     10.64    30.79     0  03:01      0.0471       0.131       1.114
  HS02004852           JUNCTION      0.00    20.44     0  03:01           0       0.084       0.069
  HS02004848           JUNCTION     32.07    32.07     0  03:01       0.151       0.151       0.033
  HS02004842           JUNCTION      0.00    11.42     0  03:01           0      0.0801      19.389
  HS02004837           JUNCTION     30.75    41.91     0  03:01       0.288       0.355       0.229
  HS02004830           JUNCTION      0.15    41.84     0  03:01     0.00423       0.346       0.359
  HS02004824           JUNCTION     40.25    81.79     0  03:01       0.197       0.542       0.100
  HS02004817           JUNCTION      0.60    82.18     0  03:01      0.0169       0.558       3.079
  HS02004807           JUNCTION     26.15   107.24     0  03:01       0.115       0.657       0.656
  HS02004802           JUNCTION      0.00   106.49     0  03:01           0       0.653       0.618
  HS02004799           JUNCTION     21.02   227.51     0  03:01      0.0932        1.06       0.236
  HS02004792           JUNCTION     88.55   207.33     0  03:01       0.396       0.966       0.043
  HS02004788           JUNCTION     30.78   119.37     0  03:01       0.177       0.571       0.069
  HS02004785           JUNCTION      0.15    89.79     0  03:01     0.00423       0.396       0.125
  HS02004777           JUNCTION      0.03    90.24     0  03:01    0.000846       0.397       1.326
  HS02004770           JUNCTION     73.89    90.93     0  03:01       0.324       0.398       0.787
  HS02004480           JUNCTION      0.00   269.27     0  03:01           0        1.25       0.099
  HS02004479           JUNCTION      0.00    42.82     0  03:02           0       0.204       0.360
  HS02004478           JUNCTION      0.00   375.17     0  03:01           0        1.89       0.018
  YS02001745           JUNCTION    297.18   297.18     0  03:01        2.34        2.34       0.481
  YS02001748           JUNCTION      0.04   419.34     0  02:41     0.00127        2.33       0.997
  YS02001751           JUNCTION      0.01   307.97     0  03:01     0.00031         2.3       1.035
  YS02001754           JUNCTION      0.26   307.94     0  03:01     0.00733        2.29       1.090
  YS02001762           JUNCTION      0.00   336.91     0  02:55           0        1.71       1.242
  YS02001765           JUNCTION      0.00   336.89     0  02:55           0        1.71       1.434
  YS02001767           JUNCTION      0.54   336.84     0  02:55      0.0151        1.73       2.104
  YS02001770           JUNCTION    373.02   406.66     0  03:31        2.63        2.95       1.086
  YS02001774           JUNCTION      0.00   407.45     0  03:31           0        1.52       1.674
  YS02001779           JUNCTION      0.01   407.92     0  03:31    0.000141        1.49       1.029
  YS02001882           JUNCTION      0.00    30.15     0  02:39           0      0.0176      14.156
  YS02001884           JUNCTION      0.00    63.86     0  02:39           0      0.0537      12.893
  YS02001759           JUNCTION    359.84   662.77     0  02:55        2.43        3.79       0.608
  YS02001887           JUNCTION    453.35   453.63     0  03:01         2.8        2.83       0.300
  YS02001890           JUNCTION      0.00   453.79     0  03:01           0        2.79       0.330
  YS02001898           JUNCTION      0.00   453.66     0  03:01           0        2.77       0.119
  YS02001901           JUNCTION      0.00   453.92     0  03:01           0        2.77       0.244
  YS02001904           JUNCTION      0.00   453.73     0  03:01           0        2.77       0.225
  YS02001907           JUNCTION      0.00   872.25     0  02:58           0        6.12       0.395
  YS02001910           JUNCTION      0.00   446.21     0  02:54           0        3.37       0.350
  YS02001915           JUNCTION    263.65   446.04     0  02:54        1.96        3.39       0.178
  YS02001918           JUNCTION      0.00   211.94     0  02:54           0        1.44       0.130
  YS02001619           JUNCTION    257.27   257.27     0  03:01        1.95        1.95       0.633
  YS02001629           JUNCTION      0.00   209.00     0  02:49           0        1.63       1.805
  YS02001641           JUNCTION      0.00   440.49     0  02:49           0        3.84       0.550
  YS02001644           JUNCTION    282.70  1106.45     0  03:28        2.25        9.33       0.280
  YS02001652           JUNCTION      0.00   366.19     0  02:59           0        2.04       1.147
  YS02001655           JUNCTION      0.15   366.40     0  02:59     0.00434        2.06       1.236
  YS02001920           JUNCTION      2.87   212.03     0  02:54      0.0809        1.43       0.206
  YS02001923           JUNCTION      0.04   235.11     0  02:54     0.00106        1.34       0.049
  YS02001926           JUNCTION      0.05   186.93     0  02:54     0.00147        1.34       0.248
  YS02001929           JUNCTION    129.40   129.40     0  03:01        1.34        1.34       0.040
  YS02001658           JUNCTION      0.00   502.58     0  02:41           0        2.08       1.132
  YS02001661           JUNCTION      0.00   691.77     0  02:53           0        2.75      -0.114
  YS02001664           JUNCTION    327.80   361.82     0  02:53        2.09        2.76       0.249
  YS02001622           JUNCTION      0.00   257.52     0  03:01           0        1.94       1.671
  YS02001633           JUNCTION    287.40   440.49     0  02:49        2.32         3.9       0.827
  YS02001649           JUNCTION      0.00   937.83     0  02:50           0        6.04       0.619
  YS02001757           JUNCTION      0.00  1774.68     0  02:50           0        8.55       1.091
  YS02001895           JUNCTION      0.00   453.51     0  03:01           0        2.78       0.176
  YS02001625           JUNCTION      0.00   257.26     0  03:01           0         1.9       2.053
  YS02163301           JUNCTION      0.00   209.47     0  02:49           0        1.61       1.508
  YS02163601           JUNCTION      0.11   440.52     0  02:49      0.0031        3.87       0.783
  YS02164001           JUNCTION      0.00   440.39     0  02:49           0        3.85       0.522
  YS02001647           JUNCTION      0.00   667.65     0  02:49           0         5.1       0.561
  YSB1154              JUNCTION     25.19    25.19     0  03:01       0.113       0.114       1.285
  YSB6556              JUNCTION      0.00    24.91     0  03:01           0       0.115       1.100
  YSB1174              JUNCTION     19.06    19.06     0  03:01      0.0821      0.0827       1.580
  YSB1171              JUNCTION      0.00    43.19     0  03:01           0       0.203       3.219
  YS02006553           JUNCTION      0.00   667.01     0  03:17           0         5.9       0.267
  YS02006561           JUNCTION      0.00   964.02     0  03:01           0        8.42       0.008
  YS02006556           JUNCTION      0.00   667.07     0  03:17           0         5.9       0.190
  YS02006558           JUNCTION    392.87   964.34     0  03:01        2.57        8.45       0.063
  YS02001783           JUNCTION      0.00   964.02     0  03:01           0        8.42       0.028
  YS02001784           JUNCTION      1.06   965.00     0  03:00      0.0299        8.44       0.045
  YS02001786           JUNCTION      0.06   965.06     0  03:00     0.00159        8.44       0.041
  YS02001788           JUNCTION      0.07   965.17     0  03:01       0.002        8.44       0.023
  YS02001790           JUNCTION      0.15   965.42     0  03:00     0.00437        8.44       0.029
  YS02001791           JUNCTION      0.00   965.38     0  03:01           0        8.44       0.014
  YS02001793           JUNCTION      0.00   965.42     0  03:01           0        8.44       0.003
  WS02004139           JUNCTION      0.32   190.32     0  03:23     0.00905         3.6       0.660
  WSC                  OUTFALL       0.00   776.19     0  03:09           0        10.9       0.000
  3                    OUTFALL       0.00   255.47     0  03:02           0        3.15       0.000
  4                    OUTFALL       0.00    61.71     0  03:02           0       0.113       0.000
  5                    OUTFALL       0.00     0.00     0  00:00           0           0       0.000 ltr
  JK-storage           STORAGE       0.00   965.50     0  03:00           0        8.59      -0.319
  CC-storage           STORAGE       0.00  1774.64     0  02:50           0        6.23       1.044
  XR-storage           STORAGE     690.11   690.11     0  03:01        9.61        10.2      -0.001
  
  
  **********************
  Node Surcharge Summary
  **********************
  
  Surcharging occurs when water rises above the top of the highest conduit.
  ---------------------------------------------------------------------
                                               Max. Height   Min. Depth
                                   Hours       Above Crown    Below Rim
  Node                 Type      Surcharged         Meters       Meters
  ---------------------------------------------------------------------
  WS02004404           JUNCTION        0.68          0.053        2.727
  WS02004406           JUNCTION        0.37          0.026        2.424
  WS02004405           JUNCTION        0.52          0.040        2.760
  WS02006109           JUNCTION        1.35          0.282        1.538
  WS02006110           JUNCTION        1.10          0.104        1.746
  WS02006112           JUNCTION        1.18          0.195        1.485
  WS02006230           JUNCTION        0.56          0.079        1.491
  WS02006231           JUNCTION        0.82          0.103        1.427
  WS02006232           JUNCTION        1.23          0.234        1.246
  WS02006234           JUNCTION        1.01          0.120        1.120
  WS02006235           JUNCTION        1.09          0.152        1.138
  WS02006238           JUNCTION        1.12          0.169        1.261
  WS02006240           JUNCTION        0.82          0.063        1.327
  WS02006242           JUNCTION        0.96          0.093        0.727
  WS02006239           JUNCTION        0.97          0.097        1.193
  WS02006228           JUNCTION        1.34          0.335        1.865
  YS02001748           JUNCTION        5.05          0.570        0.620
  YS02001751           JUNCTION        5.22          0.675        0.525
  YS02001754           JUNCTION        5.40          0.776        0.374
  YS02001762           JUNCTION        5.64          1.037        0.113
  YS02001765           JUNCTION        5.61          0.980        0.120
  YS02001767           JUNCTION        5.58          0.938        0.092
  YS02001770           JUNCTION        5.57          0.885        0.035
  YS02001774           JUNCTION        5.63          0.979        0.071
  YS02001779           JUNCTION        5.40          0.680        0.000
  YS02001882           JUNCTION        0.79          0.610        0.220
  YS02001884           JUNCTION        0.83          0.649        0.221
  YS02001759           JUNCTION        5.66          1.074        0.136
  YS02001887           JUNCTION        0.92          0.736        0.214
  YS02001890           JUNCTION        0.95          0.757        0.003
  YS02001898           JUNCTION        0.75          0.521        0.219
  YS02001901           JUNCTION        0.88          0.669        0.201
  YS02001904           JUNCTION        0.86          0.635        0.215
  YS02001907           JUNCTION        1.49          0.950        0.000
  YS02001910           JUNCTION        1.00          0.779        0.321
  YS02001915           JUNCTION        0.78          0.587        0.413
  YS02001918           JUNCTION        0.53          0.264        0.546
  YS02001619           JUNCTION        5.23          0.610        0.000
  YS02001629           JUNCTION        5.24          0.470        0.000
  YS02001641           JUNCTION        5.62          0.981        0.119
  YS02001644           JUNCTION        5.62          0.920        0.000
  YS02001652           JUNCTION        5.41          1.122        0.008
  YS02001655           JUNCTION        5.26          1.200        0.000
  YS02001920           JUNCTION        0.56          0.345        0.795
  YS02001658           JUNCTION        5.09          1.300        0.000
  YS02001661           JUNCTION        0.23          1.390        0.000
  YS02001622           JUNCTION        5.25          0.620        0.000
  YS02001633           JUNCTION        5.60          0.985        0.075
  YS02001649           JUNCTION        5.64          1.050        0.000
  YS02001757           JUNCTION        5.74          1.179        0.031
  YS02001895           JUNCTION        0.76          0.556        0.194
  YS02001625           JUNCTION        5.43          0.780        0.000
  YS02163301           JUNCTION        5.58          0.933        0.097
  YS02163601           JUNCTION        5.64          1.069        0.011
  YS02164001           JUNCTION        5.61          0.998        0.102
  YS02001647           JUNCTION        5.42          0.809        0.091
  YS02006553           JUNCTION        1.57          0.965        0.225
  YS02006561           JUNCTION        0.66          0.279        0.871
  YS02006556           JUNCTION        1.20          0.881        0.469
  YS02006558           JUNCTION        1.17          0.859        0.541
  YS02001783           JUNCTION        1.28          0.848        0.752
  YS02001784           JUNCTION        1.31          1.011        0.479
  YS02001786           JUNCTION        1.29          1.282        0.148
  YS02001788           JUNCTION        1.27          1.480        0.000
  YS02001790           JUNCTION        2.66          1.157        0.000
  YS02001791           JUNCTION        2.79          0.999        0.921
  YS02001793           JUNCTION        2.99          1.568        1.032
  
  
  *********************
  Node Flooding Summary
  *********************
  
  Flooding refers to all water that overflows a node, whether it ponds or not.
  --------------------------------------------------------------------------
                                                             Total   Maximum
                                 Maximum   Time of Max       Flood    Ponded
                        Hours       Rate    Occurrence      Volume     Depth
  Node                 Flooded       LPS   days hr:min    10^6 ltr    Meters
  --------------------------------------------------------------------------
  YS02001779              2.92    407.70      0  03:31       1.472     0.000
  YS02001907              0.38    288.80      0  02:59       0.211     0.000
  YS02001619              0.01     25.86      0  02:34       0.000     0.000
  YS02001629              0.01     28.21      0  02:40       0.000     0.000
  YS02001644              4.78   1106.43      0  03:28       7.462     0.000
  YS02001655              0.01     12.93      0  02:56       0.000     0.000
  YS02001658              0.01      8.23      0  02:58       0.000     0.000
  YS02001661              0.01    138.39      0  02:58       0.000     0.000
  YS02001622              0.01     23.20      0  02:34       0.000     0.000
  YS02001649              0.08     45.03      0  02:58       0.003     0.000
  YS02001625              0.84    168.77      0  03:01       0.234     0.000
  YS02001788              0.01     62.26      0  02:37       0.000     0.000
  YS02001790              0.01    112.04      0  02:36       0.000     0.000
  JK-storage              2.34    665.38      0  03:00       2.977     0.000
  XR-storage              6.97    595.08      0  03:01       5.696     0.000
  
  
  **********************
  Storage Volume Summary
  **********************
  
  --------------------------------------------------------------------------------------------------
                         Average     Avg  Evap Exfil       Maximum     Max    Time of Max    Maximum
                          Volume    Pcnt  Pcnt  Pcnt        Volume    Pcnt     Occurrence    Outflow
  Storage Unit           1000 m3    Full  Loss  Loss       1000 m3    Full    days hr:min        LPS
  --------------------------------------------------------------------------------------------------
  JK-storage               0.159      55     0     0         0.291     100       0  02:37     409.80
  CC-storage               3.000      19     0     0         3.908      25       0  03:26     200.00
  XR-storage               0.917      99     0     0         0.926     100       0  00:51     190.00
  
  
  ***********************
  Outfall Loading Summary
  ***********************
  
  -----------------------------------------------------------
                         Flow       Avg       Max       Total
                         Freq      Flow      Flow      Volume
  Outfall Node           Pcnt       LPS       LPS    10^6 ltr
  -----------------------------------------------------------
  WSC                   99.99    453.47    776.19      10.883
  3                     95.36    144.39    255.47       3.147
  4                     16.68     32.09     61.71       0.113
  5                      0.00      0.00      0.00       0.000
  -----------------------------------------------------------
  System                53.01    629.94   1081.32      14.144
  
  
  ********************
  Link Flow Summary
  ********************
  
  -----------------------------------------------------------------------------
                                 Maximum  Time of Max   Maximum    Max/    Max/
                                  |Flow|   Occurrence   |Veloc|    Full    Full
  Link                 Type          LPS  days hr:min     m/sec    Flow   Depth
  -----------------------------------------------------------------------------
  WS02003066WSF200     CONDUIT    658.00     0  03:06      2.93    0.11    0.25
  WS02006287WS02006284 CONDUIT    375.44     0  03:02      1.98    0.17    0.29
  WS02006284WS02006280 CONDUIT    375.54     0  03:02      2.22    0.16    0.27
  WS02006280WS02006229 CONDUIT    375.58     0  03:02      3.58    0.08    0.19
  WS02006229WS02006228 CONDUIT    649.31     0  03:01      1.29    2.15    1.00
  WS02006256WS02006235 CONDUIT    166.25     0  00:01      2.58    1.76    1.00
  WS02006253WS02006251 CONDUIT     80.78     0  03:01      0.46    0.24    0.80
  WS02006252WS02006251 CONDUIT    200.60     0  01:59      1.97    0.74    0.76
  WS02006251WS02006249 CONDUIT    280.79     0  03:01      0.97    0.81    0.81
  WS02006249WS02006248 CONDUIT    242.97     0  02:15      1.06    1.33    0.81
  WS02006248WS02006247 CONDUIT    240.84     0  02:15      1.03    0.52    0.87
  WS02006247WS02006245 CONDUIT    238.65     0  02:15      0.99    1.89    0.92
  WS02006245WS02006243 CONDUIT    237.16     0  03:10      1.05    0.70    0.96
  WS02006243WS02006242 CONDUIT    239.71     0  03:11      0.85    0.51    1.00
  WS02006242WS02006240 CONDUIT    239.96     0  03:11      0.72    0.95    1.00
  WS02006240WS02006239 CONDUIT    242.58     0  03:12      0.70    0.76    1.00
  WS02006239WS02006238 CONDUIT    242.75     0  03:12      0.67    0.78    1.00
  WS02006238WS02006235 CONDUIT    242.78     0  03:12      1.25    0.54    1.00
  WS02006235WS02006234 CONDUIT    316.13     0  03:13      0.94    3.34    1.00
  WS02006234WS02006232 CONDUIT    318.07     0  03:14      1.13    0.64    1.00
  WS02006232WS02006231 CONDUIT    318.17     0  03:14      0.94    0.67    1.00
  WS02006231WS02006230 CONDUIT    321.01     0  03:14      1.29    4.87    1.00
  WS02006230WS02006229 CONDUIT    334.86     0  03:14      0.87    7.45    1.00
  WS02006228WS02006109 CONDUIT    649.21     0  03:01      1.29    2.84    1.00
  WS02006116WS02004401 CONDUIT    659.31     0  03:04      0.85    0.91    0.96
  WS02006115WS02006116 CONDUIT    660.46     0  03:02      0.90    0.85    0.89
  WS02006113WS02006111 CONDUIT    684.71     0  03:03      2.59    0.82    0.53
  WS02006112WS02006115 CONDUIT    663.50     0  03:01      0.87    0.39    0.94
  WS02006111WS02006112 CONDUIT    651.33     0  03:04      1.72    0.31    0.71
  WS02006110WS02006113 CONDUIT    652.18     0  03:02      1.49    0.59    0.82
  WS02006109WS02006110 CONDUIT    650.43     0  03:01      1.29    1.25    1.00
  WS02004411WS02004412 CONDUIT    658.11     0  03:05      1.03    0.93    0.76
  WS02004401WS02004402 CONDUIT    659.19     0  03:04      0.84    0.79    0.98
  WS02004413WS02003067 CONDUIT    657.93     0  03:06      1.24    0.28    0.64
  WS02004412WS02004413 CONDUIT    657.99     0  03:06      0.94    0.44    0.84
  WS02004410WS02004411 CONDUIT    658.22     0  03:05      1.03    0.90    0.76
  WS02004409WS02004410 CONDUIT    658.42     0  03:05      1.04    0.85    0.75
  WS02004407WS02004409 CONDUIT    658.77     0  03:05      1.53    0.23    0.54
  WS02004406WS02004407 CONDUIT    658.89     0  03:05      1.19    0.29    0.66
  WS02004405WS02004406 CONDUIT    658.84     0  03:05      0.84    1.30    1.00
  WS02004404WS02004405 CONDUIT    658.74     0  03:05      0.84    6.45    1.00
  WS02004403WS02004404 CONDUIT    658.57     0  03:05      0.84    0.48    1.00
  WS02004402WS02004403 CONDUIT    658.89     0  03:04      0.84    0.95    0.99
  WS02004139WS02001211 CONDUIT    192.03     0  03:33      0.53    0.24    0.47
  WS02004138WS02004139 CONDUIT    190.00     0  03:23      2.39    0.04    0.33
  WS02003067WS02003066 CONDUIT    657.98     0  03:06      1.35    0.21    0.44
  WS02001213WS02003059 CONDUIT    206.74     0  03:31      0.43    0.34    0.66
  WS02001212WS02001213 CONDUIT    203.14     0  03:32      1.03    0.31    0.35
  WS02001211WS02001212 CONDUIT    201.41     0  03:33      0.54    0.15    0.51
  WS02003072WS02003073 CONDUIT    774.54     0  03:08      1.61    1.67    0.44
  WS02003069WS02003072 CONDUIT    774.70     0  03:07      1.52    0.37    0.46
  WS02003060WS02003069 CONDUIT    774.58     0  03:07      1.78    0.30    0.41
  WS02003059WS02003060 CONDUIT    211.66     0  03:31      0.56    0.14    0.59
  HS02004901HS02004770 CONDUIT     17.70     0  03:01      0.07    0.07    0.39
  HS02004876HS02004881 CONDUIT     71.90     0  03:01      0.92    0.76    0.11
  HS02004870HS02004876 CONDUIT     58.03     0  03:01      0.63    0.04    0.13
  HS02004842HS02004848 CONDUIT     11.42     0  03:01      0.05    0.01    0.30
  HS02004837HS02004842 CONDUIT     11.94     0  03:02      0.41    0.01    0.32
  HS02004830HS02004837 CONDUIT     41.69     0  03:01      0.56    0.04    0.11
  HS02004824HS02004830 CONDUIT     41.67     0  03:01      0.58    0.05    0.10
  HS02004817HS02004824 CONDUIT     81.58     0  03:01      0.25    0.04    0.47
  HS02004770HS02004777 CONDUIT     90.21     0  03:01      0.32    0.16    0.41
  HS02004799HS02004480 CONDUIT    226.97     0  03:01      0.78    0.29    0.42
  HS02004792HS02004799 CONDUIT    206.60     0  03:01      0.88    0.13    0.33
  HS02004788HS02004792 CONDUIT    118.94     0  03:01      1.01    0.08    0.17
  HS02004785HS02004788 CONDUIT     89.52     0  03:02      0.66    0.67    0.19
  HS02004777HS02004785 CONDUIT     89.64     0  03:01      0.38    0.11    0.33
  HS02004480HS02004478 CONDUIT    269.12     0  03:01      1.20    1.13    0.32
  HS02004479HS02004480 CONDUIT     44.17     0  03:02      0.23    0.04    0.40
  HS02004862HS02004870 CONDUIT     44.23     0  03:01      0.64    0.05    0.10
  HS02004848HS02004852 CONDUIT     20.44     0  03:01      0.44    0.02    0.07
  HS02004856HS02004862 CONDUIT     30.57     0  03:01      0.47    0.03    0.09
  HS02004852HS02004856 CONDUIT     20.26     0  03:01      0.24    0.02    0.12
  HS02004802HS02004478 CONDUIT    106.59     0  03:02      0.45    0.09    0.35
  HS02004478WS02006287 CONDUIT    375.27     0  03:01      1.68    0.11    0.25
  HS02004817HS02004807 CONDUIT     82.18     0  03:01      0.19    0.05    0.62
  HS02004807HS02004802 CONDUIT    106.49     0  03:01      0.38    0.20    0.40
  YS02001759YS02001757 CONDUIT    662.73     0  02:55      0.84    0.47    1.00
  YS02001762YS02001759 CONDUIT    336.85     0  02:55      0.43    0.39    1.00
  YS02001765YS02001762 CONDUIT    336.91     0  02:55      0.43    0.32    1.00
  YS02001770YS02001767 CONDUIT    336.31     0  02:55      0.43    1.33    1.00
  YS02001774YS02001770 CONDUIT    407.45     0  03:31      0.52    0.26    1.00
  YS02001779YS02001774 CONDUIT    407.91     0  03:31      0.52    0.21    1.00
  YS02001649YS02001757 CONDUIT    937.17     0  02:50      1.19    0.57    1.00
  YS02001767YS02001765 CONDUIT    336.89     0  02:55      0.43    0.42    1.00
  YS02006561YS02001783 CONDUIT    964.02     0  03:01      2.12    0.50    1.00
  YS02001783YS02001784 CONDUIT    963.94     0  03:00      1.92    1.33    1.00
  YS02001784YS02001785 CONDUIT    965.01     0  03:00      1.92    2.25    1.00
  YS02001788YS02001790 CONDUIT    965.27     0  03:00      2.28    0.71    1.00
  YS02001790YS02001791 CONDUIT    965.38     0  03:01      2.79    1.05    1.00
  YS02001791YS02001793 CONDUIT    965.42     0  03:01      5.54    0.41    1.00
  YS02001910YS02001907 CONDUIT    446.19     0  02:54      0.57    0.25    1.00
  YS02001786YS02001788 CONDUIT    965.10     0  03:01      2.20    1.86    1.00
  YS02001915YS02001910 CONDUIT    446.21     0  02:54      0.57    0.22    1.00
  YS02001918YS02001915 CONDUIT    212.02     0  02:54      0.44    0.12    1.00
  YS02001923YS02001920 CONDUIT    209.16     0  02:54      0.68    0.09    1.00
  YS02001926YS02001923 CONDUIT    235.07     0  02:54      0.79    0.34    0.89
  YS02001929YS02001926 CONDUIT    186.88     0  02:54      0.84    0.09    0.80
  YS02001920YS02001918 CONDUIT    211.94     0  02:54      0.67    0.21    1.00
  YS02001629YS02163301 CONDUIT    209.47     0  02:49      0.27    0.26    1.00
  YS02001619YS02001622 CONDUIT    257.52     0  03:01      0.61    0.38    1.00
  YS02001622YS02001625 CONDUIT    257.26     0  03:01      0.33    0.14    1.00
  YS02001625YS02001629 CONDUIT    209.00     0  02:49      0.27    0.10    1.00
  YS02163301YS02001633 CONDUIT    209.75     0  02:49      0.27    0.20    1.00
  YS02163601YS02164001 CONDUIT    440.39     0  02:49      0.56    0.39    1.00
  YS02164001YS02001641 CONDUIT    440.49     0  02:49      0.56    0.60    1.00
  YS02001641YS02001644 CONDUIT    440.46     0  02:49      0.56    1.42    1.00
  YS02001647YS02001649 CONDUIT    667.58     0  02:49      0.85    0.35    1.00
  YS02006553YS02006556 CONDUIT    667.07     0  03:17      0.85    0.57    1.00
  YS02006556YS02006558 CONDUIT    667.31     0  03:17      0.85    0.53    1.00
  YSB6556YSB1171       CONDUIT     24.81     0  03:03      0.09    0.03    0.67
  YS02001907YS02006553 CONDUIT    667.01     0  03:17      0.74    0.78    1.00
  YS02006558YS02006561 CONDUIT    964.02     0  03:01      3.41    2.13    1.00
  YS02001633YS02163601 CONDUIT    440.41     0  02:49      0.56    0.46    1.00
  YS02001644YS02001647 CONDUIT    667.65     0  02:49      0.85    0.39    1.00
  YS02001745YS02001748 CONDUIT    419.29     0  02:41      1.48    0.16    0.95
  YS02001748YS02001751 CONDUIT    307.96     0  03:01      1.05    0.16    1.00
  YS02001751YS02001754 CONDUIT    307.68     0  03:01      0.88    0.15    1.00
  YS02001754YS02001757 CONDUIT    307.72     0  03:01      0.39    0.12    1.00
  YS02001882YS02001884 CONDUIT     30.15     0  02:39      0.09    0.03    1.00
  YS02001884YS02001887 CONDUIT     63.86     0  02:39      0.09    0.09    1.00
  YS02001890YS02001895 CONDUIT    453.51     0  03:01      0.58    0.21    1.00
  YS02001895YS02001898 CONDUIT    453.66     0  03:01      0.58    0.79    1.00
  YS02001898YS02001901 CONDUIT    453.92     0  03:01      0.58    0.29    1.00
  YS02001901YS02001904 CONDUIT    453.73     0  03:01      0.58    0.70    1.00
  YS02001904YS02001907 CONDUIT    453.84     0  03:01      0.58    0.16    1.00
  YS02001887YS02001890 CONDUIT    453.79     0  03:01      0.58    0.78    1.00
  YS02001652YS02001649 CONDUIT    366.80     0  02:59      0.50    0.18    1.00
  YS02001655YS02001652 CONDUIT    366.19     0  02:59      0.93    0.18    1.00
  YS02001658YS02001655 CONDUIT    366.25     0  02:59      1.21    0.16    1.00
  YS02001661YS02001658 CONDUIT    502.58     0  02:41      1.56    0.20    1.00
  YS02001664YS02001661 CONDUIT    691.77     0  02:53      1.58    0.22    0.73
  YSB1154YSB6556       CONDUIT     24.91     0  03:01      0.18    0.04    0.56
  YSB1174YSB1171       CONDUIT     18.78     0  03:01      0.07    0.03    0.68
  YSB1171HS02004479    CONDUIT     42.82     0  03:02      0.54    0.03    0.53
  HS02004881HS02006253 CONDUIT     79.15     0  03:01      1.62    0.02    0.20
  YS02001793JiankangQianchi CONDUIT    965.50     0  03:00     13.02    0.08    1.00
  YS02001757CaochengTiaoxuchi CONDUIT   1774.64     0  02:50      2.38    0.78    1.00
  WSF200WS02003060     CONDUIT    658.06     0  03:06      2.01    0.15    0.33
  1                    CONDUIT    776.19     0  03:09      3.11    0.27    0.36
  2                    CONDUIT     61.71     0  03:02      4.23    0.15    0.26
  3                    CONDUIT    255.47     0  03:02      8.37    0.41    0.46
  4                    CONDUIT      0.00     0  00:00      0.00    0.00    0.00
  CC-Pump-1            PUMP       200.00     0  01:59              1.00
  CC-Pump-2            PUMP         0.00     0  00:00              0.00
  JK-Pump-1            PUMP       300.00     0  00:00              1.00
  JK-Pump-2            PUMP       300.00     0  03:20              1.00
  XR-Pump-1            PUMP        95.00     0  03:20              1.00
  XR-Pump-2            PUMP        95.00     0  00:00              1.00
  XR-Pump-3            PUMP         0.00     0  00:00              0.00
  XR-Pump-4            PUMP         0.00     0  00:00              0.00
  
  
  ***************************
  Flow Classification Summary
  ***************************
  
  -------------------------------------------------------------------------------------
                      Adjusted    ---------- Fraction of Time in Flow Class ---------- 
                       /Actual         Up    Down  Sub   Sup   Up    Down  Norm  Inlet 
  Conduit               Length    Dry  Dry   Dry   Crit  Crit  Crit  Crit  Ltd   Ctrl  
  -------------------------------------------------------------------------------------
  WS02003066WSF200        1.00   0.06  0.00  0.00  0.00  0.94  0.00  0.00  0.61  0.00
  WS02006287WS02006284    1.00   0.04  0.01  0.00  0.59  0.36  0.00  0.00  0.65  0.00
  WS02006284WS02006280    1.00   0.05  0.00  0.00  0.00  0.00  0.00  0.95  0.00  0.00
  WS02006280WS02006229    1.00   0.05  0.00  0.00  0.00  0.00  0.00  0.95  0.00  0.00
  WS02006229WS02006228    1.00   0.00  0.00  0.00  0.99  0.00  0.00  0.01  0.00  0.00
  WS02006256WS02006235    1.00   0.00  0.00  0.00  1.00  0.00  0.00  0.00  0.00  0.00
  WS02006253WS02006251    1.00   0.03  0.01  0.00  0.96  0.00  0.00  0.00  0.00  0.00
  WS02006252WS02006251    1.00   0.07  0.00  0.00  0.00  0.00  0.93  0.00  0.00  0.00
  WS02006251WS02006249    1.00   0.00  0.00  0.00  1.00  0.00  0.00  0.00  0.54  0.00
  WS02006249WS02006248    1.00   0.00  0.02  0.00  0.55  0.00  0.43  0.00  0.00  0.00
  WS02006248WS02006247    1.00   0.02  0.00  0.00  0.98  0.00  0.00  0.00  0.42  0.00
  WS02006247WS02006245    1.00   0.02  0.00  0.00  0.98  0.00  0.00  0.00  0.00  0.00
  WS02006245WS02006243    1.00   0.01  0.00  0.00  0.95  0.00  0.00  0.03  0.01  0.00
  WS02006243WS02006242    1.00   0.01  0.00  0.00  0.99  0.00  0.00  0.00  0.21  0.00
  WS02006242WS02006240    1.00   0.00  0.00  0.00  1.00  0.00  0.00  0.00  0.00  0.00
  WS02006240WS02006239    1.00   0.00  0.00  0.00  0.96  0.00  0.00  0.03  0.01  0.00
  WS02006239WS02006238    1.00   0.00  0.00  0.00  1.00  0.00  0.00  0.00  0.02  0.00
  WS02006238WS02006235    1.00   0.00  0.00  0.00  1.00  0.00  0.00  0.00  0.00  0.00
  WS02006235WS02006234    1.00   0.00  0.00  0.00  0.96  0.00  0.04  0.00  0.00  0.00
  WS02006234WS02006232    1.00   0.00  0.00  0.00  1.00  0.00  0.00  0.00  0.11  0.00
  WS02006232WS02006231    1.00   0.00  0.00  0.00  0.99  0.00  0.00  0.00  0.00  0.00
  WS02006231WS02006230    1.00   0.00  0.00  0.00  0.26  0.00  0.73  0.00  0.00  0.00
  WS02006230WS02006229    1.00   0.00  0.00  0.00  0.99  0.00  0.00  0.01  0.01  0.00
  WS02006228WS02006109    1.00   0.00  0.00  0.00  1.00  0.00  0.00  0.00  0.00  0.00
  WS02006116WS02004401    1.00   0.03  0.00  0.00  0.97  0.00  0.00  0.00  0.00  0.00
  WS02006115WS02006116    1.00   0.03  0.00  0.00  0.97  0.00  0.00  0.01  0.00  0.00
  WS02006113WS02006111    1.00   0.02  0.00  0.00  0.00  0.98  0.00  0.00  0.12  0.00
  WS02006112WS02006115    1.00   0.02  0.00  0.00  0.97  0.00  0.00  0.00  0.00  0.00
  WS02006111WS02006112    1.00   0.02  0.00  0.00  0.98  0.00  0.00  0.00  0.92  0.00
  WS02006110WS02006113    1.00   0.01  0.01  0.00  0.98  0.00  0.00  0.00  0.00  0.00
  WS02006109WS02006110    1.00   0.00  0.01  0.00  0.98  0.00  0.01  0.00  0.00  0.00
  WS02004411WS02004412    1.00   0.04  0.00  0.00  0.96  0.00  0.00  0.00  0.00  0.00
  WS02004401WS02004402    1.00   0.03  0.00  0.00  0.97  0.00  0.00  0.00  0.00  0.00
  WS02004413WS02003067    1.00   0.04  0.01  0.00  0.00  0.00  0.94  0.00  0.00  0.00
  WS02004412WS02004413    1.00   0.04  0.00  0.00  0.96  0.00  0.00  0.00  0.03  0.00
  WS02004410WS02004411    1.00   0.04  0.00  0.00  0.96  0.00  0.00  0.00  0.04  0.00
  WS02004409WS02004410    1.00   0.04  0.00  0.00  0.96  0.00  0.00  0.00  0.03  0.00
  WS02004407WS02004409    1.00   0.04  0.00  0.00  0.96  0.00  0.00  0.00  0.89  0.00
  WS02004406WS02004407    1.00   0.00  0.04  0.00  0.96  0.00  0.00  0.00  0.00  0.00
  WS02004405WS02004406    1.00   0.00  0.00  0.00  1.00  0.00  0.00  0.00  0.01  0.00
  WS02004404WS02004405    1.00   0.00  0.00  0.00  1.00  0.00  0.00  0.00  0.00  0.00
  WS02004403WS02004404    1.00   0.00  0.03  0.00  0.97  0.00  0.00  0.00  0.01  0.00
  WS02004402WS02004403    1.00   0.03  0.00  0.00  0.97  0.00  0.00  0.00  0.00  0.00
  WS02004139WS02001211    1.00   0.00  0.00  0.00  0.99  0.00  0.01  0.00  0.00  0.00
  WS02004138WS02004139    1.00   0.00  0.00  0.00  0.99  0.01  0.00  0.00  1.00  0.00
  WS02003067WS02003066    1.00   0.06  0.01  0.00  0.94  0.00  0.00  0.00  0.00  0.00
  WS02001213WS02003059    1.00   0.00  0.01  0.00  0.99  0.00  0.00  0.00  0.00  0.00
  WS02001212WS02001213    1.00   0.01  0.00  0.00  0.54  0.00  0.45  0.00  0.00  0.00
  WS02001211WS02001212    1.00   0.00  0.01  0.00  0.99  0.00  0.00  0.00  0.00  0.00
  WS02003072WS02003073    1.00   0.00  0.00  0.00  0.00  0.00  0.00  1.00  0.00  0.00
  WS02003069WS02003072    1.00   0.00  0.00  0.00  0.99  0.01  0.00  0.00  0.37  0.00
  WS02003060WS02003069    1.00   0.00  0.00  0.00  0.99  0.01  0.00  0.00  0.21  0.00
  WS02003059WS02003060    1.00   0.00  0.00  0.00  1.00  0.00  0.00  0.00  0.02  0.00
  HS02004901HS02004770    1.00   0.04  0.00  0.00  0.96  0.00  0.00  0.00  0.00  0.00
  HS02004876HS02004881    1.00   0.02  0.00  0.00  0.89  0.08  0.00  0.00  0.00  0.00
  HS02004870HS02004876    1.00   0.01  0.00  0.00  0.99  0.00  0.00  0.00  0.95  0.00
  HS02004842HS02004848    1.00   0.00  0.04  0.00  0.96  0.00  0.00  0.00  0.58  0.00
  HS02004837HS02004842    1.00   0.00  0.00  0.00  0.99  0.01  0.00  0.00  0.11  0.00
  HS02004830HS02004837    1.00   0.00  0.00  0.00  1.00  0.00  0.00  0.00  0.99  0.00
  HS02004824HS02004830    1.00   0.00  0.00  0.00  1.00  0.00  0.00  0.00  0.00  0.00
  HS02004817HS02004824    1.00   0.00  0.00  0.00  1.00  0.00  0.00  0.00  1.00  0.00
  HS02004770HS02004777    1.00   0.00  0.04  0.00  0.96  0.00  0.00  0.00  0.03  0.00
  HS02004799HS02004480    1.00   0.00  0.02  0.00  0.95  0.00  0.02  0.00  0.00  0.00
  HS02004792HS02004799    1.00   0.00  0.00  0.00  0.99  0.01  0.00  0.00  0.98  0.00
  HS02004788HS02004792    1.00   0.00  0.00  0.00  0.99  0.01  0.00  0.00  0.98  0.00
  HS02004785HS02004788    1.00   0.00  0.00  0.00  1.00  0.00  0.00  0.00  0.00  0.00
  HS02004777HS02004785    1.00   0.00  0.00  0.00  1.00  0.00  0.00  0.00  0.14  0.00
  HS02004480HS02004478    1.00   0.04  0.00  0.00  0.65  0.00  0.00  0.30  0.00  0.00
  HS02004479HS02004480    1.00   0.03  0.00  0.00  0.97  0.00  0.00  0.00  0.12  0.00
  HS02004862HS02004870    1.00   0.00  0.00  0.00  1.00  0.00  0.00  0.00  0.05  0.00
  HS02004848HS02004852    1.00   0.04  0.00  0.00  0.96  0.00  0.00  0.00  0.61  0.00
  HS02004856HS02004862    1.00   0.00  0.06  0.00  0.94  0.00  0.00  0.00  0.80  0.00
  HS02004852HS02004856    1.00   0.04  0.00  0.00  0.95  0.00  0.00  0.00  0.85  0.00
  HS02004802HS02004478    1.00   0.04  0.00  0.00  0.95  0.00  0.00  0.00  0.03  0.00
  HS02004478WS02006287    1.00   0.05  0.00  0.00  0.71  0.24  0.00  0.00  0.66  0.00
  HS02004817HS02004807    1.00   0.00  0.04  0.00  0.96  0.00  0.00  0.00  0.01  0.00
  HS02004807HS02004802    1.00   0.04  0.00  0.00  0.95  0.00  0.00  0.00  0.00  0.00
  YS02001759YS02001757    1.00   0.00  0.00  0.00  1.00  0.00  0.00  0.00  0.16  0.00
  YS02001762YS02001759    1.00   0.00  0.00  0.00  1.00  0.00  0.00  0.00  0.04  0.00
  YS02001765YS02001762    1.00   0.00  0.00  0.00  1.00  0.00  0.00  0.00  0.16  0.00
  YS02001770YS02001767    1.00   0.00  0.00  0.00  1.00  0.00  0.00  0.00  0.00  0.00
  YS02001774YS02001770    1.00   0.00  0.04  0.00  0.95  0.00  0.00  0.00  0.04  0.00
  YS02001779YS02001774    1.00   0.00  0.00  0.00  1.00  0.00  0.00  0.00  0.21  0.00
  YS02001649YS02001757    1.00   0.00  0.00  0.00  1.00  0.00  0.00  0.00  0.17  0.00
  YS02001767YS02001765    1.00   0.00  0.00  0.00  1.00  0.00  0.00  0.00  0.00  0.00
  YS02006561YS02001783    1.00   0.06  0.00  0.00  0.42  0.52  0.00  0.00  0.56  0.00
  YS02001783YS02001784    1.00   0.00  0.06  0.00  0.94  0.00  0.00  0.00  0.01  0.00
  YS02001784YS02001785    1.00   0.00  0.00  0.00  1.00  0.00  0.00  0.00  0.20  0.00
  YS02001788YS02001790    1.00   0.00  0.00  0.00  0.51  0.49  0.00  0.00  0.50  0.00
  YS02001790YS02001791    1.00   0.00  0.00  0.00  0.48  0.52  0.00  0.00  0.37  0.00
  YS02001791YS02001793    1.00   0.00  0.00  0.00  0.49  0.51  0.00  0.00  0.02  0.00
  YS02001910YS02001907    1.00   0.00  0.00  0.00  0.97  0.00  0.00  0.02  0.13  0.00
  YS02001786YS02001788    1.00   0.00  0.00  0.00  0.50  0.50  0.00  0.00  0.00  0.00
  YS02001915YS02001910    1.00   0.00  0.00  0.00  0.99  0.01  0.00  0.00  0.18  0.00
  YS02001918YS02001915    1.00   0.00  0.01  0.00  0.98  0.01  0.00  0.00  0.58  0.00
  YS02001923YS02001920    1.00   0.00  0.00  0.00  1.00  0.00  0.00  0.00  0.85  0.00
  YS02001926YS02001923    1.00   0.00  0.03  0.00  0.14  0.00  0.83  0.00  0.00  0.00
  YS02001929YS02001926    1.00   0.00  0.04  0.00  0.96  0.00  0.00  0.00  0.78  0.00
  YS02001920YS02001918    1.00   0.00  0.01  0.00  0.99  0.00  0.00  0.00  0.00  0.00
  YS02001629YS02163301    1.00   0.05  0.00  0.00  0.95  0.00  0.00  0.00  0.00  0.00
  YS02001619YS02001622    1.00   0.04  0.00  0.00  0.96  0.00  0.00  0.00  0.00  0.00
  YS02001622YS02001625    1.00   0.04  0.00  0.00  0.96  0.00  0.00  0.00  0.07  0.00
  YS02001625YS02001629    1.00   0.04  0.02  0.00  0.93  0.00  0.01  0.00  0.00  0.00
  YS02163301YS02001633    1.00   0.00  0.05  0.00  0.95  0.00  0.00  0.00  0.00  0.00
  YS02163601YS02164001    1.00   0.00  0.04  0.00  0.96  0.00  0.00  0.00  0.00  0.00
  YS02164001YS02001641    1.00   0.01  0.03  0.00  0.96  0.00  0.00  0.00  0.06  0.00
  YS02001641YS02001644    1.00   0.00  0.01  0.00  0.99  0.00  0.00  0.00  0.00  0.00
  YS02001647YS02001649    1.00   0.00  0.06  0.00  0.94  0.00  0.00  0.00  0.01  0.00
  YS02006553YS02006556    1.00   0.01  0.00  0.00  0.99  0.00  0.00  0.00  0.03  0.00
  YS02006556YS02006558    1.00   0.00  0.00  0.00  1.00  0.00  0.00  0.00  0.00  0.00
  YSB6556YSB1171          1.00   0.03  0.01  0.00  0.96  0.00  0.00  0.00  0.00  0.00
  YS02001907YS02006553    1.00   0.00  0.02  0.00  0.98  0.00  0.00  0.00  0.00  0.00
  YS02006558YS02006561    1.00   0.06  0.00  0.00  0.18  0.76  0.00  0.00  0.48  0.00
  YS02001633YS02163601    1.00   0.00  0.01  0.00  0.99  0.00  0.00  0.00  0.16  0.00
  YS02001644YS02001647    1.00   0.00  0.06  0.00  0.94  0.00  0.00  0.00  0.00  0.00
  YS02001745YS02001748    1.00   0.00  0.00  0.00  0.89  0.01  0.00  0.10  0.05  0.00
  YS02001748YS02001751    1.00   0.00  0.00  0.00  0.98  0.02  0.00  0.00  0.15  0.00
  YS02001751YS02001754    1.00   0.00  0.00  0.00  0.94  0.00  0.00  0.06  0.02  0.00
  YS02001754YS02001757    1.00   0.00  0.00  0.00  0.99  0.01  0.00  0.00  0.20  0.00
  YS02001882YS02001884    1.00   0.05  0.00  0.00  0.95  0.00  0.00  0.00  0.00  0.00
  YS02001884YS02001887    1.00   0.03  0.01  0.00  0.96  0.00  0.00  0.00  0.00  0.00
  YS02001890YS02001895    1.00   0.00  0.05  0.00  0.95  0.00  0.00  0.00  0.00  0.00
  YS02001895YS02001898    1.00   0.05  0.00  0.00  0.94  0.00  0.01  0.00  0.00  0.00
  YS02001898YS02001901    1.00   0.05  0.00  0.00  0.95  0.00  0.00  0.00  0.02  0.00
  YS02001901YS02001904    1.00   0.05  0.00  0.00  0.95  0.00  0.00  0.00  0.00  0.00
  YS02001904YS02001907    1.00   0.00  0.05  0.00  0.95  0.00  0.00  0.00  0.00  0.00
  YS02001887YS02001890    1.00   0.00  0.00  0.00  0.97  0.00  0.02  0.00  0.00  0.00
  YS02001652YS02001649    1.00   0.00  0.00  0.00  1.00  0.00  0.00  0.00  0.18  0.00
  YS02001655YS02001652    1.00   0.00  0.00  0.00  0.94  0.00  0.00  0.06  0.02  0.00
  YS02001658YS02001655    1.00   0.00  0.05  0.00  0.93  0.02  0.00  0.00  0.11  0.00
  YS02001661YS02001658    1.00   0.05  0.00  0.00  0.89  0.07  0.00  0.00  0.06  0.00
  YS02001664YS02001661    1.00   0.04  0.00  0.00  0.86  0.10  0.00  0.00  0.22  0.00
  YSB1154YSB6556          1.00   0.04  0.00  0.00  0.96  0.00  0.00  0.00  0.02  0.00
  YSB1174YSB1171          1.00   0.03  0.01  0.00  0.96  0.00  0.00  0.00  0.00  0.00
  YSB1171HS02004479       1.00   0.03  0.00  0.00  0.97  0.00  0.00  0.00  0.11  0.00
  HS02004881HS02006253    1.00   0.03  0.00  0.00  0.51  0.01  0.00  0.45  0.41  0.00
  YS02001793JiankangQianchi    1.00   0.00  0.00  0.00  0.65  0.35  0.00  0.00  0.13  0.00
  YS02001757CaochengTiaoxuchi    1.00   0.00  0.07  0.00  0.92  0.01  0.00  0.00  0.00  0.00
  WSF200WS02003060        1.00   0.00  0.06  0.00  0.41  0.53  0.00  0.00  0.33  0.00
  1                       1.00   0.00  0.00  0.00  0.00  1.00  0.00  0.00  0.13  0.00
  2                       1.00   0.83  0.00  0.00  0.00  0.17  0.00  0.00  0.01  0.00
  3                       1.00   0.05  0.00  0.00  0.00  0.95  0.00  0.00  0.22  0.00
  4                       1.00   1.00  0.00  0.00  0.00  0.00  0.00  0.00  0.00  0.00
  
  
  *************************
  Conduit Surcharge Summary
  *************************
  
  ----------------------------------------------------------------------------
                                                           Hours        Hours 
                         --------- Hours Full --------   Above Full   Capacity
  Conduit                Both Ends  Upstream  Dnstream   Normal Flow   Limited
  ----------------------------------------------------------------------------
  WS02006229WS02006228        1.34      1.35      1.34      3.28         1.34
  WS02006256WS02006235        6.09      6.09      6.78      4.64         0.01
  WS02006249WS02006248        0.01      0.01      0.01      3.09         0.01
  WS02006247WS02006245        0.01      0.01      0.01      3.19         0.01
  WS02006243WS02006242        0.01      0.01      0.96      0.01         0.01
  WS02006242WS02006240        0.82      0.82      1.04      0.01         0.01
  WS02006240WS02006239        0.89      0.89      0.97      0.01         0.01
  WS02006239WS02006238        1.07      1.07      1.12      0.01         0.01
  WS02006238WS02006235        1.11      1.11      1.16      0.01         0.01
  WS02006235WS02006234        1.01      1.01      1.09      6.11         0.01
  WS02006234WS02006232        1.07      1.07      1.23      0.01         0.01
  WS02006232WS02006231        0.82      0.82      1.23      0.01         0.01
  WS02006231WS02006230        0.56      0.56      0.89      6.12         0.01
  WS02006230WS02006229        1.41      2.48      1.41      6.22         1.41
  WS02006228WS02006109        1.35      1.38      1.35      3.59         1.35
  WS02006112WS02006115        0.01      0.01      1.18      0.01         0.01
  WS02006111WS02006112        0.01      0.01      3.25      0.01         0.01
  WS02006110WS02006113        0.01      0.01      1.36      0.01         0.01
  WS02006109WS02006110        1.10      1.10      1.38      1.10         0.01
  WS02004406WS02004407        0.01      0.01      0.37      0.01         0.01
  WS02004405WS02004406        0.37      0.52      0.37      1.14         0.37
  WS02004404WS02004405        0.52      0.68      0.52      6.00         0.52
  WS02004403WS02004404        0.01      0.01      0.68      0.01         0.01
  WS02003072WS02003073        0.01      0.01      0.01      1.65         0.01
  HS02004480HS02004478        0.01      0.01      0.01      0.25         0.01
  YS02001759YS02001757        5.66      5.66      5.74      0.01         0.01
  YS02001762YS02001759        5.64      5.64      5.66      0.01         0.01
  YS02001765YS02001762        5.61      5.61      5.64      0.01         0.01
  YS02001770YS02001767        5.58      5.58      5.58      0.32         0.68
  YS02001774YS02001770        5.57      5.57      5.63      0.01         0.01
  YS02001779YS02001774        5.40      5.40      5.63      0.01         0.01
  YS02001649YS02001757        5.64      5.64      5.74      0.01         0.01
  YS02001767YS02001765        5.58      5.58      5.61      0.01         0.01
  YS02006561YS02001783        0.66      0.66      1.28      0.01         0.01
  YS02001783YS02001784        1.28      1.28      1.31      1.08         1.02
  YS02001784YS02001785        1.29      1.31      1.29      2.07         1.28
  YS02001788YS02001790        1.27      1.27      2.66      0.01         0.01
  YS02001790YS02001791        2.66      2.66      2.79      0.49         0.49
  YS02001791YS02001793        2.79      2.79      3.06      0.01         0.01
  YS02001910YS02001907        1.00      1.00      1.49      0.01         0.01
  YS02001786YS02001788        1.27      1.29      1.27      1.71         1.27
  YS02001915YS02001910        0.78      0.78      1.00      0.01         0.01
  YS02001918YS02001915        0.53      0.53      0.78      0.01         0.01
  YS02001923YS02001920        0.29      0.29      0.56      0.01         0.01
  YS02001920YS02001918        0.53      0.53      0.56      0.01         0.01
  YS02001629YS02163301        5.56      5.56      5.58      0.01         0.01
  YS02001619YS02001622        5.23      5.23      5.25      0.01         0.01
  YS02001622YS02001625        5.25      5.25      5.43      0.01         0.01
  YS02001625YS02001629        5.24      5.24      5.43      0.01         0.01
  YS02163301YS02001633        5.58      5.58      5.61      0.01         0.01
  YS02163601YS02164001        5.61      5.61      5.64      0.01         0.01
  YS02164001YS02001641        5.61      5.61      5.62      0.01         0.02
  YS02001641YS02001644        5.62      5.62      5.62      1.22         1.28
  YS02001647YS02001649        5.42      5.42      5.64      0.01         0.01
  YS02006553YS02006556        1.20      1.20      1.57      0.01         0.01
  YS02006556YS02006558        1.36      1.36      1.64      0.01         0.01
  YS02001907YS02006553        2.09      2.09      2.31      0.01         0.01
  YS02006558YS02006561        0.89      1.17      0.89      1.94         0.89
  YS02001633YS02163601        5.60      5.60      5.64      0.01         0.01
  YS02001644YS02001647        5.42      5.42      5.62      0.01         0.01
  YS02001745YS02001748        0.01      0.01      5.05      0.01         0.01
  YS02001748YS02001751        5.10      5.10      5.22      0.01         0.01
  YS02001751YS02001754        5.22      5.22      5.40      0.01         0.01
  YS02001754YS02001757        5.42      5.42      5.74      0.01         0.01
  YS02001882YS02001884        0.79      0.79      0.83      0.01         0.01
  YS02001884YS02001887        0.89      0.89      0.92      0.01         0.01
  YS02001890YS02001895        0.76      0.76      1.02      0.01         0.01
  YS02001895YS02001898        0.75      0.75      0.76      0.01         0.01
  YS02001898YS02001901        0.77      0.77      0.88      0.01         0.01
  YS02001901YS02001904        0.86      0.86      0.88      0.01         0.01
  YS02001904YS02001907        0.86      0.86      1.61      0.01         0.01
  YS02001887YS02001890        0.95      0.95      0.99      0.01         0.01
  YS02001652YS02001649        5.43      5.43      5.64      0.01         0.01
  YS02001655YS02001652        5.26      5.26      5.41      0.01         0.01
  YS02001658YS02001655        5.08      5.08      5.26      0.01         0.01
  YS02001661YS02001658        0.21      0.21      5.09      0.01         0.01
  YS02001664YS02001661        0.01      0.01      1.26      0.01         0.01
  YS02001793JiankangQianchi        2.99      2.99      3.99      0.01         0.01
  YS02001757CaochengTiaoxuchi        4.90      4.90      5.74      0.01         0.01
  
  
  ***************
  Pumping Summary
  ***************
  
  ---------------------------------------------------------------------------------------------------------
                                                  Min       Avg       Max     Total     Power    % Time Off
                        Percent   Number of      Flow      Flow      Flow    Volume     Usage    Pump Curve
  Pump                 Utilized   Start-Ups       LPS       LPS       LPS  10^6 ltr     Kw-hr    Low   High
  ---------------------------------------------------------------------------------------------------------
  CC-Pump-1               43.90           2      0.00    188.90    200.00     2.321      3.62    0.0   17.9
  CC-Pump-2                0.00           0      0.00      0.00      0.00     0.000      0.00    0.0    0.0
  JK-Pump-1               68.08           2      0.00    195.62    300.00     2.759     37.70    0.0    0.0
  JK-Pump-2               36.17           1      0.00    281.46    300.00     2.880     13.32    0.0    0.0
  XR-Pump-1               36.17           1      0.00     89.13     95.00     0.912      4.13    0.0    0.0
  XR-Pump-2              100.00           1      0.00     95.00     95.00     2.679     13.06    0.0    0.0
  XR-Pump-3                0.00           0      0.00      0.00      0.00     0.000      0.00    0.0    0.0
  XR-Pump-4                0.00           0      0.00      0.00      0.00     0.000      0.00    0.0    0.0
  

  Analysis begun on:  Wed Jan  5 13:18:25 2022
  Analysis ended on:  Wed Jan  5 13:18:28 2022
  Total elapsed time: 00:00:03