
  EPA STORM WATER MANAGEMENT MODEL - VERSION 5.1 (Build 5.3.0.dev0)
  --------------------------------------------------------------

  WARNING 04: minimum elevation drop used for Conduit WS02004404WS02004405
  WARNING 03: negative offset ignored for Link YS02001904YS02001907
  
  *********************************************************
  NOTE: The summary statistics displayed in this report are
  based on results found at every computational time step,  
  not just on results from each reporting time step.
  *********************************************************
  
  ****************
  Analysis Options
  ****************
  Flow Units ............... LPS
  Process Models:
    Rainfall/Runoff ........ YES
    RDII ................... NO
    Snowmelt ............... NO
    Groundwater ............ NO
    Flow Routing ........... YES
    Ponding Allowed ........ NO
    Water Quality .......... NO
  Infiltration Method ...... HORTON
  Flow Routing Method ...... DYNWAVE
  Surcharge Method ......... EXTRAN
  Starting Date ............ 08/28/2015 08:00:00
  Ending Date .............. 08/28/2015 15:50:00
  Antecedent Dry Days ...... 8.0
  Report Time Step ......... 00:01:00
  Wet Time Step ............ 00:01:00
  Dry Time Step ............ 00:01:00
  Routing Time Step ........ 5.00 sec
  Variable Time Step ....... YES
  Maximum Trials ........... 8
  Number of Threads ........ 4
  Head Tolerance ........... 0.001500 m
  
  
  **************************        Volume         Depth
  Runoff Quantity Continuity     hectare-m            mm
  **************************     ---------       -------
  Total Precipitation ......         2.330         5.102
  Evaporation Loss .........         0.000         0.000
  Infiltration Loss ........         0.581         1.272
  Surface Runoff ...........         0.900         1.971
  Final Storage ............         0.849         1.860
  Continuity Error (%) .....        -0.018
  
  
  **************************        Volume        Volume
  Flow Routing Continuity        hectare-m      10^6 ltr
  **************************     ---------     ---------
  Dry Weather Inflow .......         0.616         6.165
  Wet Weather Inflow .......         0.900         8.996
  Groundwater Inflow .......         0.000         0.000
  RDII Inflow ..............         0.000         0.000
  External Inflow ..........         0.102         1.024
  External Outflow .........         1.544        15.440
  Flooding Loss ............         0.020         0.200
  Evaporation Loss .........         0.000         0.000
  Exfiltration Loss ........         0.000         0.000
  Initial Stored Volume ....         0.076         0.761
  Final Stored Volume ......         0.219         2.191
  Continuity Error (%) .....        -5.233
  
  
  *************************
  Highest Continuity Errors
  *************************
  Node HS02004842 (31.76%)
  Node YS02001884 (26.12%)
  Node YSB1171 (8.28%)
  Node YS02001774 (7.71%)
  Node HS02004901 (6.68%)
  
  
  ***************************
  Time-Step Critical Elements
  ***************************
  Link WS02006252WS02006251 (91.54%)
  Link WS02006280WS02006229 (2.52%)
  Link 3 (2.01%)
  
  
  ********************************
  Highest Flow Instability Indexes
  ********************************
  Link WS02006113WS02006111 (47)
  Link WS02006111WS02006112 (25)
  Link YS02001751YS02001754 (3)
  Link YS02001754YS02001757 (3)
  Link YS02001767YS02001765 (2)
  
  
  *************************
  Routing Time Step Summary
  *************************
  Minimum Time Step           :     0.43 sec
  Average Time Step           :     0.90 sec
  Maximum Time Step           :     5.00 sec
  Percent in Steady State     :    -0.00
  Average Iterations per Step :     2.03
  Percent Not Converging      :     0.34
  
  
  ***************************
  Subcatchment Runoff Summary
  ***************************
  
  ------------------------------------------------------------------------------------------------------------------------------
                            Total      Total      Total      Total     Imperv       Perv      Total       Total     Peak  Runoff
                           Precip      Runon       Evap      Infil     Runoff     Runoff     Runoff      Runoff   Runoff   Coeff
  Subcatchment                 mm         mm         mm         mm         mm         mm         mm    10^6 ltr      LPS
  ------------------------------------------------------------------------------------------------------------------------------
  sub0                       5.10       0.00       0.00       0.36       3.48       0.00       3.48        0.00     1.20   0.682
  sub1                       5.10       0.00       0.00       0.56       3.29       0.00       3.29        0.02     6.06   0.644
  sub2                       5.10       0.00       0.00       1.89       2.31       0.00       2.31        0.02     5.32   0.453
  sub3                       5.10       0.00       0.00       1.89       2.28       0.00       2.28        0.05    10.83   0.446
  sub4                       5.10       0.00       0.00       0.56       3.15       0.00       3.15        0.07    12.04   0.618
  sub5                       5.10       0.00       0.00       0.36       3.43       0.00       3.43        0.04    10.78   0.673
  sub7                       5.10       0.00       0.00       0.46       3.39       0.00       3.39        0.01     3.87   0.664
  sub8                       5.10       0.00       0.00       0.46       3.38       0.00       3.38        0.02     6.78   0.662
  sub9                       5.10       0.00       0.00       0.46       3.38       0.00       3.38        0.02     5.02   0.662
  sub10                      5.10       0.00       0.00       0.41       3.40       0.00       3.40        0.04    10.80   0.667
  sub11                      5.10       0.00       0.00       0.41       3.42       0.00       3.42        0.04    12.78   0.670
  sub12                      5.10       0.00       0.00       0.66       3.25       0.00       3.25        0.03    11.00   0.637
  sub14                      5.10       0.00       0.00       0.46       3.38       0.00       3.38        0.03     9.80   0.662
  sub15                      5.10       0.00       0.00       1.53       2.59       0.00       2.59        0.04    13.26   0.508
  sub16                      5.10       0.00       0.00       1.68       2.50       0.00       2.50        0.03     9.62   0.490
  sub17                      5.10       0.00       0.00       1.63       2.54       0.00       2.54        0.02     7.75   0.497
  sub22                      5.10       0.00       0.00       2.19       2.12       0.00       2.12        0.13    43.78   0.416
  sub23                      5.10       0.00       0.00       1.89       2.34       0.00       2.34        0.11    37.34   0.460
  sub60                      5.10       0.00       0.00       0.61       2.17       0.00       2.17        0.66    58.39   0.426
  sub61                      5.10       0.00       0.00       0.87       2.36       0.00       2.36        0.73    74.03   0.462
  sub62                      5.10       0.00       0.00       0.41       2.52       0.00       2.52        0.77    75.41   0.493
  sub63                      5.10       0.00       0.00       1.48       2.11       0.00       2.11        0.64    69.41   0.413
  sub64                      5.10       0.00       0.00       0.77       2.08       0.00       2.08        0.63    55.41   0.407
  sub65                      5.10       0.00       0.00       0.66       2.10       0.00       2.10        0.65    56.17   0.412
  sub66                      5.10       0.00       0.00       1.48       1.82       0.00       1.82        0.56    50.96   0.357
  sub67                      5.10       0.00       0.00       0.41       2.80       0.00       2.80        0.86    97.83   0.549
  sub68                      5.10       0.00       0.00       0.71       2.52       0.00       2.52        0.77    82.08   0.493
  sub69                      5.10       0.00       0.00       0.77       2.75       0.00       2.75        0.64    82.58   0.539
  sub70                      5.10       2.80       0.00       2.69       3.28       0.00       3.28        0.75    63.61   0.415
  sub71                      5.10       0.00       0.00       0.41       2.40       0.00       2.40        0.57    52.44   0.470
  sub72                      5.10       0.00       0.00       0.36       1.64       0.00       1.64        0.33    24.24   0.322
  sub73                      5.10       3.20       0.00       2.82       3.28       0.00       3.28        0.77    54.28   0.395
  sub74                      5.10       0.00       0.00       3.83       0.83       0.00       0.83        0.33    46.31   0.163
  
  
  ******************
  Node Depth Summary
  ******************
  
  ---------------------------------------------------------------------------------
                                 Average  Maximum  Maximum  Time of Max    Reported
                                   Depth    Depth      HGL   Occurrence   Max Depth
  Node                 Type       Meters   Meters   Meters  days hr:min      Meters
  ---------------------------------------------------------------------------------
  WS02001211           JUNCTION     0.70     0.77     5.61     0  05:28        0.77
  WS02001212           JUNCTION     0.41     0.48     5.54     0  05:27        0.48
  WS02001213           JUNCTION     0.64     0.71     5.47     0  05:27        0.71
  WS02003069           JUNCTION     0.44     0.49     5.08     0  05:25        0.49
  WS02003072           JUNCTION     0.51     0.56     4.93     0  05:26        0.56
  WS02003073           JUNCTION     0.30     0.34     4.40     0  05:26        0.34
  WS02003060           JUNCTION     0.39     0.44     5.37     0  05:25        0.44
  WS02003066           JUNCTION     0.22     0.27     5.83     0  02:52        0.27
  WS02003059           JUNCTION     0.70     0.76     5.44     0  05:26        0.76
  WS02003067           JUNCTION     0.54     0.66     5.98     0  02:52        0.66
  WS02004401           JUNCTION     0.62     0.77     6.77     0  02:48        0.77
  WS02004402           JUNCTION     0.65     0.80     6.76     0  02:48        0.80
  WS02004403           JUNCTION     0.67     0.82     6.75     0  02:48        0.82
  WS02004404           JUNCTION     0.75     0.90     6.75     0  02:48        0.90
  WS02004406           JUNCTION     0.76     0.90     6.73     0  02:48        0.90
  WS02004409           JUNCTION     0.44     0.59     6.36     0  02:51        0.59
  WS02004410           JUNCTION     0.46     0.61     6.33     0  02:52        0.61
  WS02004411           JUNCTION     0.48     0.63     6.31     0  02:52        0.63
  WS02004412           JUNCTION     0.50     0.64     6.28     0  02:52        0.64
  WS02004413           JUNCTION     0.66     0.80     6.27     0  02:52        0.80
  WS02004405           JUNCTION     0.75     0.89     6.74     0  02:48        0.89
  WS02006109           JUNCTION     0.69     0.86     7.48     0  02:43        0.86
  WS02006110           JUNCTION     0.70     0.85     7.43     0  02:43        0.85
  WS02006111           JUNCTION     0.20     0.26     6.97     0  02:44        0.26
  WS02006112           JUNCTION     0.78     0.96     6.84     0  02:47        0.96
  WS02006113           JUNCTION     0.30     0.41     7.30     0  02:43        0.41
  WS02006115           JUNCTION     0.51     0.67     6.81     0  02:48        0.67
  WS02006116           JUNCTION     0.59     0.75     6.79     0  02:48        0.75
  WS02006230           JUNCTION     0.63     0.86     7.61     0  02:44        0.86
  WS02006231           JUNCTION     0.42     0.56     7.68     0  02:45        0.56
  WS02006232           JUNCTION     0.55     0.69     7.73     0  02:46        0.69
  WS02006234           JUNCTION     0.46     0.61     7.77     0  02:47        0.61
  WS02006235           JUNCTION     0.49     0.64     7.80     0  02:47        0.64
  WS02006238           JUNCTION     0.52     0.66     7.81     0  02:47        0.66
  WS02006240           JUNCTION     0.42     0.55     7.85     0  02:48        0.55
  WS02006242           JUNCTION     0.49     0.61     7.88     0  02:48        0.61
  WS02006243           JUNCTION     0.37     0.48     7.90     0  02:48        0.48
  WS02006245           JUNCTION     0.36     0.45     7.93     0  02:48        0.45
  WS02006247           JUNCTION     0.39     0.47     7.97     0  02:48        0.47
  WS02006248           JUNCTION     0.34     0.40     7.99     0  02:48        0.40
  WS02006249           JUNCTION     0.38     0.44     8.04     0  02:47        0.44
  WS02006239           JUNCTION     0.47     0.62     7.83     0  02:48        0.62
  WS02006251           JUNCTION     0.37     0.42     8.09     0  02:46        0.42
  WS02006252           JUNCTION     0.32     0.35     8.59     0  02:27        0.35
  WS02006253           JUNCTION     0.39     0.45     8.09     0  02:46        0.45
  WS02006256           JUNCTION     0.85     1.19     8.12     0  00:40        1.19
  WS02004138           JUNCTION     0.17     0.19     7.44     0  01:30        0.19
  WS02004407           JUNCTION     0.20     0.27     6.58     0  02:49        0.27
  WS02006228           JUNCTION     0.68     0.88     7.53     0  02:43        0.88
  WS02006229           JUNCTION     0.65     0.86     7.56     0  02:43        0.86
  WS02006280           JUNCTION     0.05     0.13     8.40     0  02:20        0.13
  WS02006284           JUNCTION     0.34     0.46     8.86     0  02:20        0.46
  WS02006287           JUNCTION     0.07     0.19     9.15     0  02:19        0.19
  WSF200               JUNCTION     0.20     0.27     5.51     0  02:53        0.27
  HS02004901           JUNCTION     0.10     0.21    10.04     0  02:17        0.21
  HS02004881           JUNCTION     0.00     0.02     9.05     0  02:19        0.02
  HS02004876           JUNCTION     0.03     0.10     9.13     0  02:18        0.10
  HS02004870           JUNCTION     0.01     0.04     9.32     0  02:19        0.04
  HS02004862           JUNCTION     0.01     0.04     9.43     0  02:20        0.04
  HS02004856           JUNCTION     0.07     0.10     9.53     0  02:19        0.10
  HS02004852           JUNCTION     0.01     0.02     9.54     0  02:21        0.02
  HS02004848           JUNCTION     0.01     0.02     9.62     0  02:18        0.02
  HS02004842           JUNCTION     0.33     0.35     9.62     0  02:18        0.35
  HS02004837           JUNCTION     0.02     0.04     9.62     0  02:18        0.04
  HS02004830           JUNCTION     0.04     0.06     9.53     0  02:19        0.06
  HS02004824           JUNCTION     0.02     0.04     9.44     0  02:22        0.04
  HS02004817           JUNCTION     0.42     0.51     9.36     0  02:20        0.51
  HS02004807           JUNCTION     0.11     0.18     9.35     0  02:20        0.18
  HS02004802           JUNCTION     0.14     0.22     9.35     0  02:20        0.22
  HS02004799           JUNCTION     0.09     0.23     9.44     0  02:18        0.23
  HS02004792           JUNCTION     0.02     0.09     9.61     0  02:17        0.09
  HS02004788           JUNCTION     0.02     0.06     9.96     0  02:18        0.06
  HS02004785           JUNCTION     0.03     0.12    10.02     0  02:18        0.12
  HS02004777           JUNCTION     0.13     0.24    10.03     0  02:18        0.24
  HS02004770           JUNCTION     0.10     0.21    10.04     0  02:18        0.21
  HS02004480           JUNCTION     0.06     0.18     9.42     0  02:18        0.18
  HS02004479           JUNCTION     0.09     0.22     9.42     0  02:18        0.22
  HS02004478           JUNCTION     0.05     0.11     9.34     0  02:19        0.11
  YS02001745           JUNCTION     0.07     0.10     7.62     0  03:01        0.10
  YS02001748           JUNCTION     0.19     0.34     7.41     0  04:23        0.33
  YS02001751           JUNCTION     0.38     0.54     7.42     0  04:25        0.53
  YS02001754           JUNCTION     0.63     0.81     7.42     0  04:22        0.81
  YS02001762           JUNCTION     0.82     0.96     7.36     0  04:40        0.96
  YS02001765           JUNCTION     0.78     0.92     7.37     0  04:44        0.92
  YS02001767           JUNCTION     0.74     0.89     7.38     0  04:43        0.89
  YS02001770           JUNCTION     0.74     0.86     7.36     0  04:45        0.86
  YS02001774           JUNCTION     0.80     0.94     7.36     0  04:45        0.94
  YS02001779           JUNCTION     0.56     0.69     7.37     0  04:26        0.68
  YS02001882           JUNCTION     0.25     0.40     7.11     0  02:53        0.40
  YS02001884           JUNCTION     0.35     0.50     7.11     0  02:53        0.50
  YS02001759           JUNCTION     0.86     1.00     7.37     0  04:45        1.00
  YS02001887           JUNCTION     0.43     0.58     7.11     0  02:53        0.58
  YS02001890           JUNCTION     0.46     0.61     7.11     0  02:54        0.61
  YS02001898           JUNCTION     0.23     0.36     7.10     0  02:54        0.36
  YS02001901           JUNCTION     0.34     0.49     7.10     0  02:54        0.49
  YS02001904           JUNCTION     0.32     0.46     7.09     0  02:55        0.46
  YS02001907           JUNCTION     0.65     0.81     7.10     0  02:55        0.81
  YS02001910           JUNCTION     0.44     0.59     7.10     0  02:55        0.59
  YS02001915           JUNCTION     0.24     0.38     7.09     0  02:55        0.38
  YS02001918           JUNCTION     0.07     0.09     7.15     0  03:03        0.09
  YS02001619           JUNCTION     0.34     0.45     7.38     0  04:26        0.45
  YS02001629           JUNCTION     0.68     0.82     7.37     0  04:27        0.81
  YS02001641           JUNCTION     0.79     0.93     7.37     0  04:20        0.93
  YS02001644           JUNCTION     0.80     0.94     7.37     0  04:24        0.94
  YS02001652           JUNCTION     0.64     0.81     7.40     0  04:22        0.81
  YS02001655           JUNCTION     0.40     0.56     7.41     0  04:31        0.55
  YS02001920           JUNCTION     0.16     0.19     7.20     0  03:03        0.19
  YS02001923           JUNCTION     0.06     0.07     7.33     0  03:02        0.07
  YS02001926           JUNCTION     0.13     0.16     7.60     0  03:01        0.16
  YS02001929           JUNCTION     0.06     0.08     7.77     0  03:01        0.08
  YS02001658           JUNCTION     0.14     0.26     7.40     0  04:29        0.25
  YS02001661           JUNCTION     0.13     0.18     7.59     0  02:46        0.18
  YS02001664           JUNCTION     0.06     0.10     8.03     0  02:46        0.10
  YS02001622           JUNCTION     0.36     0.46     7.36     0  04:32        0.45
  YS02001633           JUNCTION     0.78     0.92     7.37     0  04:27        0.91
  YS02001649           JUNCTION     0.83     0.98     7.37     0  04:26        0.98
  YS02001757           JUNCTION     0.96     1.11     7.37     0  04:30        1.11
  YS02001895           JUNCTION     0.22     0.36     7.11     0  02:54        0.36
  YS02001625           JUNCTION     0.64     0.77     7.38     0  04:25        0.77
  YS02163301           JUNCTION     0.71     0.86     7.37     0  04:27        0.85
  YS02163601           JUNCTION     0.83     0.96     7.36     0  04:34        0.96
  YS02164001           JUNCTION     0.77     0.91     7.37     0  04:30        0.91
  YS02001647           JUNCTION     0.63     0.75     7.36     0  04:30        0.75
  YSB1154              JUNCTION     0.23     0.36     9.42     0  02:18        0.36
  YSB6556              JUNCTION     0.13     0.25     9.42     0  02:18        0.25
  YSB1174              JUNCTION     0.18     0.31     9.42     0  02:18        0.31
  YSB1171              JUNCTION     0.38     0.52     9.42     0  02:18        0.52
  YS02006553           JUNCTION     0.66     0.81     7.09     0  02:54        0.81
  YS02006561           JUNCTION     0.12     0.20     6.86     0  02:55        0.20
  YS02006556           JUNCTION     0.63     0.78     7.09     0  02:55        0.78
  YS02006558           JUNCTION     0.68     0.82     7.09     0  02:55        0.82
  YS02001783           JUNCTION     0.27     0.49     6.63     0  06:50        0.49
  YS02001784           JUNCTION     0.31     0.56     6.63     0  06:50        0.56
  YS02001786           JUNCTION     0.29     0.59     6.62     0  06:50        0.59
  YS02001788           JUNCTION     0.25     0.64     6.62     0  06:50        0.64
  YS02001790           JUNCTION     0.36     0.97     6.61     0  06:50        0.97
  YS02001791           JUNCTION     0.35     1.48     6.95     0  06:33        1.14
  YS02001793           JUNCTION     0.49     1.77     6.60     0  06:50        1.77
  WS02004139           JUNCTION     0.64     0.72     5.63     0  05:29        0.72
  WSC                  OUTFALL      0.30     0.34     1.01     0  05:27        0.34
  3                    OUTFALL      0.04     0.19     6.19     0  00:40        0.19
  4                    OUTFALL      0.00     0.00     7.00     0  00:00        0.00
  5                    OUTFALL      0.00     0.00     5.00     0  00:00        0.00
  JK-storage           STORAGE      2.41     5.80     6.60     0  06:48        5.80
  CC-storage           STORAGE      0.21     0.33     7.33     0  04:53        0.33
  XR-storage           STORAGE      2.54     6.06     4.06     0  05:12        6.06
  
  
  *******************
  Node Inflow Summary
  *******************
  
  -------------------------------------------------------------------------------------------------
                                  Maximum  Maximum                  Lateral       Total        Flow
                                  Lateral    Total  Time of Max      Inflow      Inflow     Balance
                                   Inflow   Inflow   Occurrence      Volume      Volume       Error
  Node                 Type           LPS      LPS  days hr:min    10^6 ltr    10^6 ltr     Percent
  -------------------------------------------------------------------------------------------------
  WS02001211           JUNCTION      7.35   388.10     0  05:33       0.207        8.38       0.505
  WS02001212           JUNCTION      0.00   388.62     0  05:33           0        8.33       0.283
  WS02001213           JUNCTION      0.00   389.14     0  05:33           0        8.31       0.304
  WS02003069           JUNCTION      0.32   709.52     0  05:25     0.00902        14.4       0.216
  WS02003072           JUNCTION      0.00   709.35     0  05:26           0        14.4       0.263
  WS02003073           JUNCTION      1.82   711.17     0  05:26      0.0514        14.4       0.297
  WS02003060           JUNCTION     16.53   709.19     0  05:24       0.466        14.5       0.204
  WS02003066           JUNCTION      0.00   438.19     0  02:52           0        5.76       0.065
  WS02003059           JUNCTION      0.00   390.04     0  05:33           0        8.29       0.506
  WS02003067           JUNCTION      0.00   438.17     0  02:52           0        5.77       0.142
  WS02004401           JUNCTION      0.00   440.37     0  02:46           0        5.97       0.317
  WS02004402           JUNCTION      0.00   440.06     0  02:47           0        5.95       0.303
  WS02004403           JUNCTION      0.00   439.89     0  02:47           0        5.94       0.279
  WS02004404           JUNCTION      0.16   439.97     0  02:48     0.00457        5.92       0.214
  WS02004406           JUNCTION      0.00   439.95     0  02:48           0        5.89       0.523
  WS02004409           JUNCTION      0.00   439.92     0  02:49           0        5.86       0.225
  WS02004410           JUNCTION      0.00   439.17     0  02:50           0        5.84       0.259
  WS02004411           JUNCTION      0.00   438.67     0  02:50           0        5.83       0.271
  WS02004412           JUNCTION      0.00   438.38     0  02:51           0        5.81       0.300
  WS02004413           JUNCTION      0.00   438.23     0  02:52           0        5.79       0.456
  WS02004405           JUNCTION      0.04   439.98     0  02:48     0.00107        5.91       0.322
  WS02006109           JUNCTION      1.23   440.08     0  02:43      0.0347        6.06       0.337
  WS02006110           JUNCTION      0.00   440.08     0  02:43           0        6.04       0.310
  WS02006111           JUNCTION      0.00   451.98     0  02:43           0        6.01       0.058
  WS02006112           JUNCTION      7.75   444.63     0  02:43      0.0217        6.03       0.450
  WS02006113           JUNCTION      0.00   440.16     0  02:43           0        6.02       0.132
  WS02006115           JUNCTION      0.00   442.19     0  02:44           0           6       0.288
  WS02006116           JUNCTION      0.00   440.98     0  02:46           0        5.99       0.261
  WS02006230           JUNCTION     10.28   330.81     0  02:55        0.29        5.28       0.210
  WS02006231           JUNCTION      0.00   320.07     0  02:55           0           5       0.131
  WS02006232           JUNCTION      0.00   319.85     0  02:55           0        5.01       0.284
  WS02006234           JUNCTION      0.00   319.57     0  02:55           0        5.02       0.137
  WS02006235           JUNCTION      0.00   319.41     0  02:54           0        5.05       0.162
  WS02006238           JUNCTION      0.00   227.72     0  05:20           0        3.99       0.155
  WS02006240           JUNCTION      0.00   219.73     0  02:50           0        3.99       0.263
  WS02006242           JUNCTION      0.00   221.46     0  02:32           0        3.99       0.322
  WS02006243           JUNCTION      0.00   224.58     0  02:33           0        3.99       0.176
  WS02006245           JUNCTION      0.00   225.67     0  02:33           0           4       0.216
  WS02006247           JUNCTION      0.00   226.33     0  02:33           0        4.01       0.164
  WS02006248           JUNCTION      0.00   226.78     0  02:32           0        4.01       0.109
  WS02006249           JUNCTION      0.00   227.44     0  02:31           0        4.02       0.241
  WS02006239           JUNCTION      0.00   220.19     0  05:20           0        3.99       0.191
  WS02006251           JUNCTION      0.08   229.97     0  02:29     0.00217        4.03       0.217
  WS02006252           JUNCTION      0.00   200.00     0  02:27           0        3.91       0.011
  WS02006253           JUNCTION      1.20    33.32     0  02:18     0.00282       0.122       3.147
  WS02006256           JUNCTION      0.00   600.00     0  00:40           0        2.14       0.094
  WS02004138           JUNCTION      0.00   380.00     0  01:30           0        8.21       0.064
  WS02004407           JUNCTION      0.00   439.94     0  02:49           0        5.86       0.104
  WS02006228           JUNCTION      0.00   438.85     0  02:43           0        6.04       0.231
  WS02006229           JUNCTION      0.00   438.86     0  02:42           0        6.05       0.191
  WS02006280           JUNCTION      0.00   173.98     0  02:20           0       0.783       0.009
  WS02006284           JUNCTION      0.10   173.98     0  02:20      0.0027       0.784       0.137
  WS02006287           JUNCTION      0.00   173.89     0  02:19           0       0.782       0.092
  WSF200               JUNCTION      0.00   438.18     0  02:52           0        5.76       0.060
  HS02004901           JUNCTION      9.62     9.62     0  02:11      0.0262      0.0263       7.156
  HS02004881           JUNCTION      3.87    32.42     0  02:18      0.0114       0.119       0.240
  HS02004876           JUNCTION      6.06    28.87     0  02:19      0.0218       0.108       0.485
  HS02004870           JUNCTION      6.78    22.95     0  02:19      0.0216      0.0866       0.123
  HS02004862           JUNCTION      5.52    16.66     0  02:19      0.0272      0.0652       0.258
  HS02004856           JUNCTION      5.02    11.19     0  02:18      0.0162      0.0395       3.779
  HS02004852           JUNCTION      0.00     6.52     0  02:19           0      0.0233       0.212
  HS02004848           JUNCTION     10.83    10.83     0  02:21      0.0512      0.0512       0.084
  HS02004842           JUNCTION      0.00     4.68     0  02:31           0      0.0409      46.533
  HS02004837           JUNCTION     17.15    21.19     0  02:17       0.217       0.245       0.332
  HS02004830           JUNCTION      0.15    21.33     0  02:18     0.00423       0.235       0.527
  HS02004824           JUNCTION     12.09    33.27     0  02:22      0.0672       0.301       0.179
  HS02004817           JUNCTION      0.60    33.86     0  02:22      0.0169       0.317       5.544
  HS02004807           JUNCTION     12.78    45.43     0  02:20      0.0397        0.34       1.257
  HS02004802           JUNCTION      0.00    45.57     0  02:21           0       0.336       1.222
  HS02004799           JUNCTION      9.80   109.42     0  02:17      0.0321       0.397       0.570
  HS02004792           JUNCTION     44.06    99.90     0  02:17       0.142       0.365       0.113
  HS02004788           JUNCTION     14.93    58.12     0  02:18      0.0917       0.225       0.174
  HS02004785           JUNCTION      0.15    43.71     0  02:17     0.00423       0.135       0.357
  HS02004777           JUNCTION      0.03    44.22     0  02:15    0.000846       0.135       3.968
  HS02004770           JUNCTION     37.34    45.63     0  02:13       0.112       0.136       2.324
  HS02004480           JUNCTION      0.00   128.95     0  02:18           0       0.462       0.154
  HS02004479           JUNCTION      0.00    19.97     0  02:19           0      0.0769       0.957
  HS02004478           JUNCTION      0.00   173.89     0  02:19           0       0.783       0.081
  YS02001745           JUNCTION     58.39    58.39     0  03:01       0.659       0.659       0.115
  YS02001748           JUNCTION      0.04   141.22     0  04:22     0.00127       0.901      -0.027
  YS02001751           JUNCTION      0.01   181.08     0  03:23     0.00031       0.922       0.500
  YS02001754           JUNCTION      0.26   177.72     0  04:02     0.00733       0.926       1.441
  YS02001762           JUNCTION      0.00   111.31     0  03:23           0       0.751       2.233
  YS02001765           JUNCTION      0.00   102.68     0  03:14           0       0.746       2.423
  YS02001767           JUNCTION      0.54   102.84     0  03:21      0.0151       0.755       3.304
  YS02001770           JUNCTION     75.57   100.80     0  03:20       0.778       0.898       2.345
  YS02001774           JUNCTION      0.00    41.90     0  04:14           0       0.235       8.348
  YS02001779           JUNCTION      0.01    39.38     0  04:06    0.000141      0.0963       8.234
  YS02001882           JUNCTION      0.00     3.53     0  02:09           0     0.00442      55.404
  YS02001884           JUNCTION      0.00    10.23     0  02:09           0      0.0178      35.351
  YS02001759           JUNCTION     74.07   179.92     0  03:20       0.727        1.45       1.308
  YS02001887           JUNCTION     98.28    98.28     0  02:43       0.876       0.885       0.789
  YS02001890           JUNCTION      0.00    97.70     0  02:45           0       0.863       0.889
  YS02001898           JUNCTION      0.00    97.29     0  02:47           0       0.852       0.238
  YS02001901           JUNCTION      0.00    97.23     0  02:49           0       0.852       0.625
  YS02001904           JUNCTION      0.00    96.83     0  02:49           0       0.852       0.582
  YS02001907           JUNCTION      0.00   175.44     0  02:56           0        1.82       1.209
  YS02001910           JUNCTION      0.00    79.73     0  03:00           0       0.974       1.023
  YS02001915           JUNCTION     52.46    79.35     0  03:01       0.566       0.979       0.439
  YS02001918           JUNCTION      0.00    27.11     0  03:03           0       0.414       0.242
  YS02001619           JUNCTION     50.96    50.96     0  02:59       0.558       0.558       0.326
  YS02001629           JUNCTION      0.00    78.33     0  03:22           0       0.538       1.665
  YS02001641           JUNCTION      0.00   114.49     0  03:17           0        1.13       1.377
  YS02001644           JUNCTION     55.45   169.10     0  03:08       0.632        1.74       1.094
  YS02001652           JUNCTION      0.00   107.76     0  03:49           0       0.824       1.505
  YS02001655           JUNCTION      0.15   159.20     0  03:25     0.00434       0.813       0.788
  YS02001920           JUNCTION      2.87    27.13     0  03:02      0.0809       0.416       0.459
  YS02001923           JUNCTION      0.04    24.26     0  03:02     0.00106       0.335       0.080
  YS02001926           JUNCTION      0.05    24.28     0  03:01     0.00147       0.336       0.578
  YS02001929           JUNCTION     24.24    24.24     0  03:01       0.335       0.335       0.077
  YS02001658           JUNCTION      0.00   111.61     0  04:18           0       0.806       0.035
  YS02001661           JUNCTION      0.00    69.41     0  02:46           0       0.638       0.113
  YS02001664           JUNCTION     69.41    69.41     0  02:46       0.638       0.638       0.025
  YS02001622           JUNCTION      0.00    61.66     0  03:20           0       0.556       1.122
  YS02001633           JUNCTION     56.37   115.19     0  03:05       0.651        1.16       1.965
  YS02001649           JUNCTION      0.00   277.41     0  03:23           0         2.5       1.136
  YS02001757           JUNCTION      0.00   467.80     0  03:20           0        4.57       1.762
  YS02001895           JUNCTION      0.00    97.41     0  02:48           0       0.856       0.411
  YS02001625           JUNCTION      0.00    74.86     0  04:18           0       0.556       3.740
  YS02163301           JUNCTION      0.00    68.53     0  03:21           0       0.531       2.991
  YS02163601           JUNCTION      0.11   124.25     0  03:23      0.0031        1.14       2.079
  YS02164001           JUNCTION      0.00   115.48     0  03:17           0        1.13       1.286
  YS02001647           JUNCTION      0.00   169.99     0  03:14           0        1.71       0.942
  YSB1154              JUNCTION     10.78    10.78     0  02:16      0.0389      0.0403       3.716
  YSB6556              JUNCTION      0.00    10.71     0  02:18           0      0.0413       3.104
  YSB1174              JUNCTION     11.00    11.00     0  02:10      0.0284      0.0294       4.565
  YSB1171              JUNCTION      0.00    19.91     0  02:18           0      0.0763       9.031
  YS02006553           JUNCTION      0.00   175.48     0  02:58           0         1.8       0.785
  YS02006561           JUNCTION      0.00   257.60     0  02:55           0        2.55       0.023
  YS02006556           JUNCTION      0.00   175.65     0  03:02           0        1.81       0.565
  YS02006558           JUNCTION     82.96   257.62     0  02:55       0.798        2.58       0.172
  YS02001783           JUNCTION      0.00   257.60     0  02:55           0        2.55       0.282
  YS02001784           JUNCTION      1.06   258.66     0  02:55      0.0299        2.57       0.415
  YS02001786           JUNCTION      0.06   258.71     0  02:55     0.00159        2.57       0.530
  YS02001788           JUNCTION      0.07   258.77     0  02:56       0.002        2.55       0.544
  YS02001790           JUNCTION      0.15   258.92     0  02:56     0.00437        2.55       0.674
  YS02001791           JUNCTION      0.00   258.92     0  02:56           0        2.54       0.575
  YS02001793           JUNCTION      0.00   258.92     0  02:56           0        2.53       0.665
  WS02004139           JUNCTION      0.32   380.37     0  01:30     0.00905        8.21       0.524
  WSC                  OUTFALL       0.00   711.19     0  05:27           0        14.4       0.000
  3                    OUTFALL       0.00   446.79     0  00:40           0        1.06       0.000
  4                    OUTFALL       0.00     0.00     0  00:00           0           0       0.000 ltr
  5                    OUTFALL       0.00     0.00     0  00:00           0           0       0.000 ltr
  JK-storage           STORAGE       0.00   258.92     0  02:56           0        2.66       0.604
  CC-storage           STORAGE       0.00   421.85     0  03:04           0        4.24       0.138
  XR-storage           STORAGE     295.07   295.07     0  02:53        6.74        7.34     -10.545
  
  
  **********************
  Node Surcharge Summary
  **********************
  
  Surcharging occurs when water rises above the top of the highest conduit.
  ---------------------------------------------------------------------
                                               Max. Height   Min. Depth
                                   Hours       Above Crown    Below Rim
  Node                 Type      Surcharged         Meters       Meters
  ---------------------------------------------------------------------
  WS02006109           JUNCTION        0.58          0.043        1.777
  WS02006228           JUNCTION        0.55          0.048        2.152
  YS02001759           JUNCTION        0.03          0.004        1.206
  YS02001757           JUNCTION        3.84          0.113        1.097
  YS02001790           JUNCTION        1.12          0.166        0.991
  YS02001791           JUNCTION        1.25          0.683        1.237
  YS02001793           JUNCTION        1.45          0.770        1.830
  
  
  *********************
  Node Flooding Summary
  *********************
  
  Flooding refers to all water that overflows a node, whether it ponds or not.
  --------------------------------------------------------------------------
                                                             Total   Maximum
                                 Maximum   Time of Max       Flood    Ponded
                        Hours       Rate    Occurrence      Volume     Depth
  Node                 Flooded       LPS   days hr:min    10^6 ltr    Meters
  --------------------------------------------------------------------------
  JK-storage              1.02     89.90      0  06:51       0.200     0.000
  
  
  **********************
  Storage Volume Summary
  **********************
  
  --------------------------------------------------------------------------------------------------
                         Average     Avg  Evap Exfil       Maximum     Max    Time of Max    Maximum
                          Volume    Pcnt  Pcnt  Pcnt        Volume    Pcnt     Occurrence    Outflow
  Storage Unit           1000 m3    Full  Loss  Loss       1000 m3    Full    days hr:min        LPS
  --------------------------------------------------------------------------------------------------
  JK-storage               0.121      42     0     0         0.291     100       0  06:48     600.00
  CC-storage               0.592       4     0     0         0.918       6       0  04:53     200.00
  XR-storage               0.305      33     0     0         0.727      78       0  05:12     380.00
  
  
  ***********************
  Outfall Loading Summary
  ***********************
  
  -----------------------------------------------------------
                         Flow       Avg       Max       Total
                         Freq      Flow      Flow      Volume
  Outfall Node           Pcnt       LPS       LPS    10^6 ltr
  -----------------------------------------------------------
  WSC                  100.00    577.43    711.19      14.381
  3                     48.00    104.24    446.79       1.059
  4                      0.00      0.00      0.00       0.000
  5                      0.00      0.00      0.00       0.000
  -----------------------------------------------------------
  System                37.00    681.67    852.35      15.440
  
  
  ********************
  Link Flow Summary
  ********************
  
  -----------------------------------------------------------------------------
                                 Maximum  Time of Max   Maximum    Max/    Max/
                                  |Flow|   Occurrence   |Veloc|    Full    Full
  Link                 Type          LPS  days hr:min     m/sec    Flow   Depth
  -----------------------------------------------------------------------------
  WS02003066WSF200     CONDUIT    438.18     0  02:52      2.61    0.07    0.21
  WS02006287WS02006284 CONDUIT    173.88     0  02:20      1.53    0.08    0.20
  WS02006284WS02006280 CONDUIT    173.98     0  02:20      1.77    0.07    0.18
  WS02006280WS02006229 CONDUIT    173.98     0  02:20      2.84    0.04    0.13
  WS02006229WS02006228 CONDUIT    438.85     0  02:43      0.87    1.45    1.00
  WS02006256WS02006235 CONDUIT    158.12     0  00:33      2.30    1.67    1.00
  WS02006253WS02006251 CONDUIT     33.30     0  02:19      0.46    0.10    0.61
  WS02006252WS02006251 CONDUIT    200.50     0  02:28      1.97    0.74    0.76
  WS02006251WS02006249 CONDUIT    227.44     0  02:31      0.96    0.66    0.61
  WS02006249WS02006248 CONDUIT    226.78     0  02:32      1.04    1.24    0.59
  WS02006248WS02006247 CONDUIT    226.33     0  02:33      1.02    0.49    0.61
  WS02006247WS02006245 CONDUIT    225.67     0  02:33      0.99    1.79    0.65
  WS02006245WS02006243 CONDUIT    224.58     0  02:33      1.08    0.66    0.66
  WS02006243WS02006242 CONDUIT    221.46     0  02:32      0.94    0.47    0.75
  WS02006242WS02006240 CONDUIT    219.73     0  02:50      0.86    0.87    0.82
  WS02006240WS02006239 CONDUIT    220.19     0  05:20      0.97    0.69    0.81
  WS02006239WS02006238 CONDUIT    227.72     0  05:20      0.83    0.73    0.90
  WS02006238WS02006235 CONDUIT    232.50     0  05:20      0.91    0.52    0.93
  WS02006235WS02006234 CONDUIT    319.57     0  02:55      0.95    3.37    0.87
  WS02006234WS02006232 CONDUIT    319.85     0  02:55      1.02    0.65    0.93
  WS02006232WS02006231 CONDUIT    320.07     0  02:55      0.93    0.67    0.89
  WS02006231WS02006230 CONDUIT    320.53     0  02:55      1.28    4.86    0.74
  WS02006230WS02006229 CONDUIT    331.57     0  02:55      0.86    7.38    1.00
  WS02006228WS02006109 CONDUIT    438.85     0  02:43      0.87    1.92    1.00
  WS02006116WS02004401 CONDUIT    440.37     0  02:46      0.77    0.61    0.76
  WS02006115WS02006116 CONDUIT    440.98     0  02:46      0.84    0.57    0.68
  WS02006113WS02006111 CONDUIT    451.98     0  02:43      2.29    0.54    0.42
  WS02006112WS02006115 CONDUIT    442.19     0  02:44      0.67    0.26    0.81
  WS02006111WS02006112 CONDUIT    441.39     0  02:44      1.26    0.21    0.66
  WS02006110WS02006113 CONDUIT    440.16     0  02:43      1.08    0.40    0.75
  WS02006109WS02006110 CONDUIT    440.08     0  02:43      0.89    0.85    0.96
  WS02004411WS02004412 CONDUIT    438.38     0  02:51      0.84    0.62    0.63
  WS02004401WS02004402 CONDUIT    440.06     0  02:47      0.81    0.53    0.79
  WS02004413WS02003067 CONDUIT    438.17     0  02:52      1.00    0.19    0.55
  WS02004412WS02004413 CONDUIT    438.23     0  02:52      0.72    0.29    0.72
  WS02004410WS02004411 CONDUIT    438.67     0  02:50      0.86    0.60    0.62
  WS02004409WS02004410 CONDUIT    439.17     0  02:50      0.90    0.57    0.60
  WS02004407WS02004409 CONDUIT    439.92     0  02:49      1.39    0.16    0.43
  WS02004406WS02004407 CONDUIT    439.94     0  02:49      0.92    0.20    0.58
  WS02004405WS02004406 CONDUIT    439.95     0  02:48      0.64    0.87    0.90
  WS02004404WS02004405 CONDUIT    439.94     0  02:48      0.90    4.31    0.90
  WS02004403WS02004404 CONDUIT    439.81     0  02:48      0.78    0.32    0.86
  WS02004402WS02004403 CONDUIT    439.89     0  02:47      0.82    0.63    0.81
  WS02004139WS02001211 CONDUIT    380.76     0  05:33      0.69    0.48    0.58
  WS02004138WS02004139 CONDUIT    380.04     0  01:30      2.95    0.08    0.43
  WS02003067WS02003066 CONDUIT    438.19     0  02:52      1.08    0.14    0.39
  WS02001213WS02003059 CONDUIT    390.04     0  05:33      0.68    0.64    0.72
  WS02001212WS02001213 CONDUIT    389.14     0  05:33      1.32    0.60    0.43
  WS02001211WS02001212 CONDUIT    388.62     0  05:33      0.78    0.30    0.62
  WS02003072WS02003073 CONDUIT    709.35     0  05:26      1.56    1.53    0.42
  WS02003069WS02003072 CONDUIT    709.35     0  05:26      1.48    0.34    0.44
  WS02003060WS02003069 CONDUIT    709.20     0  05:25      1.74    0.28    0.39
  WS02003059WS02003060 CONDUIT    391.31     0  05:32      0.95    0.26    0.60
  HS02004901HS02004770 CONDUIT      8.64     0  02:15      0.04    0.03    0.30
  HS02004876HS02004881 CONDUIT     28.92     0  02:19      0.49    0.31    0.08
  HS02004870HS02004876 CONDUIT     22.93     0  02:19      0.35    0.02    0.09
  HS02004842HS02004848 CONDUIT      4.68     0  02:31      0.03    0.00    0.27
  HS02004837HS02004842 CONDUIT      4.84     0  02:31      0.42    0.00    0.28
  HS02004830HS02004837 CONDUIT     21.18     0  02:18      0.42    0.02    0.07
  HS02004824HS02004830 CONDUIT     21.32     0  02:19      0.46    0.03    0.07
  HS02004817HS02004824 CONDUIT     33.26     0  02:22      0.17    0.01    0.39
  HS02004770HS02004777 CONDUIT     44.19     0  02:15      0.20    0.08    0.31
  HS02004799HS02004480 CONDUIT    109.21     0  02:17      0.54    0.14    0.29
  HS02004792HS02004799 CONDUIT     99.84     0  02:17      0.63    0.06    0.23
  HS02004788HS02004792 CONDUIT     58.07     0  02:18      0.78    0.04    0.11
  HS02004785HS02004788 CONDUIT     43.57     0  02:18      0.47    0.33    0.13
  HS02004777HS02004785 CONDUIT     43.56     0  02:17      0.25    0.05    0.25
  HS02004480HS02004478 CONDUIT    128.93     0  02:18      0.90    0.54    0.21
  HS02004479HS02004480 CONDUIT     20.13     0  02:20      0.16    0.02    0.28
  HS02004862HS02004870 CONDUIT     16.62     0  02:20      0.43    0.02    0.05
  HS02004848HS02004852 CONDUIT      6.52     0  02:19      0.28    0.01    0.03
  HS02004856HS02004862 CONDUIT     11.17     0  02:19      0.32    0.01    0.05
  HS02004852HS02004856 CONDUIT      6.48     0  02:21      0.11    0.01    0.09
  HS02004802HS02004478 CONDUIT     45.82     0  02:22      0.28    0.04    0.24
  HS02004478WS02006287 CONDUIT    173.89     0  02:19      1.22    0.05    0.16
  HS02004817HS02004807 CONDUIT     34.24     0  02:24      0.10    0.02    0.49
  HS02004807HS02004802 CONDUIT     45.57     0  02:21      0.23    0.09    0.28
  YS02001759YS02001757 CONDUIT    169.51     0  03:16      0.22    0.12    1.00
  YS02001762YS02001759 CONDUIT    119.22     0  03:20      0.17    0.14    0.98
  YS02001765YS02001762 CONDUIT    111.31     0  03:23      0.22    0.10    0.94
  YS02001770YS02001767 CONDUIT    102.30     0  03:21      0.34    0.41    0.87
  YS02001774YS02001770 CONDUIT     41.90     0  04:14      0.14    0.03    0.89
  YS02001779YS02001774 CONDUIT     39.38     0  04:06      0.07    0.02    0.81
  YS02001649YS02001757 CONDUIT    306.02     0  03:24      0.39    0.19    0.99
  YS02001767YS02001765 CONDUIT    102.68     0  03:14      0.26    0.13    0.90
  YS02006561YS02001783 CONDUIT    257.60     0  02:55      1.70    0.13    0.36
  YS02001783YS02001784 CONDUIT    257.60     0  02:55      1.16    0.36    0.65
  YS02001784YS02001785 CONDUIT    258.65     0  02:55      1.22    0.60    0.72
  YS02001788YS02001790 CONDUIT    258.77     0  02:56      1.78    0.19    0.90
  YS02001790YS02001791 CONDUIT    258.92     0  02:56      2.03    0.28    1.00
  YS02001791YS02001793 CONDUIT    258.92     0  02:56      4.14    0.11    1.00
  YS02001910YS02001907 CONDUIT     79.86     0  03:01      0.50    0.05    0.69
  YS02001786YS02001788 CONDUIT    258.70     0  02:56      1.65    0.50    0.77
  YS02001915YS02001910 CONDUIT     79.73     0  03:00      0.44    0.04    0.48
  YS02001918YS02001915 CONDUIT     27.10     0  03:03      0.44    0.01    0.23
  YS02001923YS02001920 CONDUIT     24.26     0  03:02      0.40    0.01    0.13
  YS02001926YS02001923 CONDUIT     24.23     0  03:02      0.45    0.03    0.12
  YS02001929YS02001926 CONDUIT     24.23     0  03:01      0.47    0.01    0.12
  YS02001920YS02001918 CONDUIT     27.11     0  03:03      0.42    0.03    0.14
  YS02001629YS02163301 CONDUIT     68.53     0  03:21      0.11    0.08    0.84
  YS02001619YS02001622 CONDUIT     61.66     0  03:20      0.63    0.09    0.45
  YS02001622YS02001625 CONDUIT     66.19     0  03:20      0.23    0.04    0.61
  YS02001625YS02001629 CONDUIT     78.33     0  03:22      0.23    0.04    0.60
  YS02163301YS02001633 CONDUIT     63.22     0  03:19      0.10    0.06    0.89
  YS02163601YS02164001 CONDUIT    115.48     0  03:17      0.16    0.10    0.93
  YS02164001YS02001641 CONDUIT    114.49     0  03:17      0.16    0.16    0.92
  YS02001641YS02001644 CONDUIT    116.27     0  03:08      0.16    0.38    0.94
  YS02001647YS02001649 CONDUIT    174.08     0  03:19      0.25    0.09    0.86
  YS02006553YS02006556 CONDUIT    175.65     0  03:02      0.27    0.15    0.78
  YS02006556YS02006558 CONDUIT    175.82     0  03:02      0.26    0.14    0.80
  YSB6556YSB1171       CONDUIT     10.84     0  02:20      0.05    0.01    0.55
  YS02001907YS02006553 CONDUIT    175.48     0  02:58      0.22    0.21    0.88
  YS02006558YS02006561 CONDUIT    257.60     0  02:55      2.18    0.57    0.43
  YS02001633YS02163601 CONDUIT    124.14     0  03:23      0.17    0.13    0.92
  YS02001644YS02001647 CONDUIT    169.99     0  03:14      0.25    0.10    0.85
  YS02001745YS02001748 CONDUIT     58.39     0  03:01      1.34    0.02    0.17
  YS02001748YS02001751 CONDUIT    181.07     0  03:23      1.04    0.09    0.38
  YS02001751YS02001754 CONDUIT     93.55     0  03:21      0.94    0.05    0.64
  YS02001754YS02001757 CONDUIT    179.95     0  03:30      0.33    0.07    0.91
  YS02001882YS02001884 CONDUIT      3.53     0  02:09      0.06    0.00    0.42
  YS02001884YS02001887 CONDUIT     10.23     0  02:09      0.06    0.01    0.51
  YS02001890YS02001895 CONDUIT     97.41     0  02:48      0.26    0.05    0.48
  YS02001895YS02001898 CONDUIT     97.29     0  02:47      0.47    0.17    0.35
  YS02001898YS02001901 CONDUIT     97.23     0  02:49      0.31    0.06    0.42
  YS02001901YS02001904 CONDUIT     96.83     0  02:49      0.26    0.15    0.48
  YS02001904YS02001907 CONDUIT     96.96     0  02:52      0.18    0.03    0.64
  YS02001887YS02001890 CONDUIT     97.70     0  02:45      0.21    0.17    0.57
  YS02001652YS02001649 CONDUIT    151.26     0  04:02      0.32    0.07    0.89
  YS02001655YS02001652 CONDUIT    104.04     0  03:18      1.02    0.05    0.66
  YS02001658YS02001655 CONDUIT    159.05     0  03:25      1.20    0.07    0.36
  YS02001661YS02001658 CONDUIT     69.40     0  02:46      1.37    0.03    0.17
  YS02001664YS02001661 CONDUIT     69.41     0  02:46      1.01    0.02    0.14
  YSB1154YSB6556       CONDUIT     10.71     0  02:18      0.19    0.02    0.44
  YSB1174YSB1171       CONDUIT     10.02     0  02:12      0.05    0.02    0.56
  YSB1171HS02004479    CONDUIT     19.97     0  02:19      0.54    0.01    0.43
  HS02004881HS02006253 CONDUIT     32.42     0  02:19      1.55    0.01    0.09
  YS02001793JiankangQianchi CONDUIT    258.92     0  02:56     11.52    0.02    1.00
  YS02001757CaochengTiaoxuchi CONDUIT    421.85     0  03:04      0.95    0.19    0.66
  WSF200WS02003060     CONDUIT    438.16     0  02:53      1.62    0.10    0.29
  1                    CONDUIT    711.19     0  05:27      3.03    0.25    0.34
  2                    CONDUIT      0.00     0  00:00      0.00    0.00    0.00
  3                    CONDUIT    446.79     0  00:40      9.56    0.71    0.63
  4                    CONDUIT      0.00     0  00:00      0.00    0.00    0.00
  CC-Pump-1            PUMP         0.00     0  00:00              0.00
  CC-Pump-2            PUMP       200.00     0  02:27              1.00
  JK-Pump-1            PUMP       300.00     0  00:40              1.00
  JK-Pump-2            PUMP       300.00     0  00:40              1.00
  XR-Pump-1            PUMP        95.00     0  00:40              1.00
  XR-Pump-2            PUMP        95.00     0  00:00              1.00
  XR-Pump-3            PUMP        95.00     0  00:00              1.00
  XR-Pump-4            PUMP        95.00     0  00:40              1.00
  
  
  ***************************
  Flow Classification Summary
  ***************************
  
  -------------------------------------------------------------------------------------
                      Adjusted    ---------- Fraction of Time in Flow Class ---------- 
                       /Actual         Up    Down  Sub   Sup   Up    Down  Norm  Inlet 
  Conduit               Length    Dry  Dry   Dry   Crit  Crit  Crit  Crit  Ltd   Ctrl  
  -------------------------------------------------------------------------------------
  WS02003066WSF200        1.00   0.05  0.01  0.00  0.00  0.94  0.00  0.00  0.74  0.00
  WS02006287WS02006284    1.00   0.04  0.02  0.00  0.73  0.22  0.00  0.00  0.78  0.00
  WS02006284WS02006280    1.00   0.04  0.00  0.00  0.00  0.00  0.00  0.96  0.00  0.00
  WS02006280WS02006229    1.00   0.04  0.00  0.00  0.00  0.00  0.00  0.96  0.00  0.00
  WS02006229WS02006228    1.00   0.00  0.00  0.00  1.00  0.00  0.00  0.00  0.00  0.00
  WS02006256WS02006235    1.00   0.01  0.00  0.00  0.99  0.00  0.00  0.00  0.00  0.00
  WS02006253WS02006251    1.00   0.01  0.03  0.00  0.96  0.00  0.00  0.00  0.00  0.00
  WS02006252WS02006251    1.00   0.08  0.00  0.00  0.00  0.00  0.92  0.00  0.00  0.00
  WS02006251WS02006249    1.00   0.00  0.00  0.00  1.00  0.00  0.00  0.00  0.28  0.00
  WS02006249WS02006248    1.00   0.00  0.00  0.00  0.91  0.00  0.08  0.00  0.00  0.00
  WS02006248WS02006247    1.00   0.00  0.00  0.00  0.98  0.00  0.00  0.02  0.17  0.00
  WS02006247WS02006245    1.00   0.00  0.00  0.00  0.97  0.00  0.00  0.03  0.00  0.00
  WS02006245WS02006243    1.00   0.01  0.00  0.00  0.94  0.00  0.00  0.05  0.01  0.00
  WS02006243WS02006242    1.00   0.01  0.00  0.00  0.98  0.00  0.00  0.01  0.22  0.00
  WS02006242WS02006240    1.00   0.01  0.00  0.00  0.99  0.00  0.00  0.00  0.00  0.00
  WS02006240WS02006239    1.00   0.01  0.00  0.00  0.95  0.00  0.00  0.04  0.01  0.00
  WS02006239WS02006238    1.00   0.01  0.00  0.00  0.99  0.00  0.00  0.00  0.08  0.00
  WS02006238WS02006235    1.00   0.01  0.00  0.00  0.99  0.00  0.00  0.00  0.00  0.00
  WS02006235WS02006234    1.00   0.01  0.00  0.00  0.95  0.00  0.04  0.00  0.00  0.00
  WS02006234WS02006232    1.00   0.01  0.00  0.00  0.99  0.00  0.00  0.00  0.06  0.00
  WS02006232WS02006231    1.00   0.01  0.00  0.00  0.98  0.00  0.00  0.00  0.00  0.00
  WS02006231WS02006230    1.00   0.01  0.00  0.00  0.29  0.00  0.70  0.00  0.00  0.00
  WS02006230WS02006229    1.00   0.00  0.00  0.00  0.99  0.00  0.00  0.01  0.00  0.00
  WS02006228WS02006109    1.00   0.00  0.00  0.00  1.00  0.00  0.00  0.00  0.00  0.00
  WS02006116WS02004401    1.00   0.03  0.00  0.00  0.97  0.00  0.00  0.00  0.00  0.00
  WS02006115WS02006116    1.00   0.03  0.00  0.00  0.96  0.00  0.00  0.00  0.00  0.00
  WS02006113WS02006111    1.00   0.01  0.00  0.00  0.01  0.98  0.00  0.00  0.12  0.00
  WS02006112WS02006115    1.00   0.01  0.02  0.00  0.97  0.00  0.00  0.00  0.00  0.00
  WS02006111WS02006112    1.00   0.01  0.00  0.00  0.97  0.01  0.00  0.01  0.92  0.00
  WS02006110WS02006113    1.00   0.00  0.01  0.00  0.99  0.00  0.00  0.00  0.00  0.00
  WS02006109WS02006110    1.00   0.00  0.00  0.00  1.00  0.00  0.00  0.00  0.00  0.00
  WS02004411WS02004412    1.00   0.04  0.00  0.00  0.96  0.00  0.00  0.00  0.00  0.00
  WS02004401WS02004402    1.00   0.03  0.00  0.00  0.97  0.00  0.00  0.00  0.00  0.00
  WS02004413WS02003067    1.00   0.05  0.01  0.00  0.00  0.00  0.94  0.00  0.00  0.00
  WS02004412WS02004413    1.00   0.05  0.00  0.00  0.95  0.00  0.00  0.00  0.02  0.00
  WS02004410WS02004411    1.00   0.04  0.00  0.00  0.96  0.00  0.00  0.00  0.03  0.00
  WS02004409WS02004410    1.00   0.04  0.00  0.00  0.96  0.00  0.00  0.00  0.03  0.00
  WS02004407WS02004409    1.00   0.04  0.00  0.00  0.95  0.00  0.00  0.00  0.85  0.00
  WS02004406WS02004407    1.00   0.00  0.04  0.00  0.96  0.00  0.00  0.00  0.00  0.00
  WS02004405WS02004406    1.00   0.00  0.00  0.00  1.00  0.00  0.00  0.00  0.04  0.00
  WS02004404WS02004405    1.00   0.00  0.00  0.00  1.00  0.00  0.00  0.00  0.00  0.00
  WS02004403WS02004404    1.00   0.00  0.03  0.00  0.97  0.00  0.00  0.00  0.00  0.00
  WS02004402WS02004403    1.00   0.03  0.00  0.00  0.97  0.00  0.00  0.00  0.00  0.00
  WS02004139WS02001211    1.00   0.00  0.00  0.00  1.00  0.00  0.00  0.00  0.00  0.00
  WS02004138WS02004139    1.00   0.00  0.00  0.00  1.00  0.00  0.00  0.00  1.00  0.00
  WS02003067WS02003066    1.00   0.06  0.00  0.00  0.94  0.00  0.00  0.00  0.00  0.00
  WS02001213WS02003059    1.00   0.00  0.00  0.00  1.00  0.00  0.00  0.00  0.00  0.00
  WS02001212WS02001213    1.00   0.00  0.00  0.00  0.93  0.00  0.07  0.00  0.00  0.00
  WS02001211WS02001212    1.00   0.00  0.00  0.00  1.00  0.00  0.00  0.00  0.00  0.00
  WS02003072WS02003073    1.00   0.00  0.00  0.00  0.00  0.00  0.00  1.00  0.00  0.00
  WS02003069WS02003072    1.00   0.00  0.00  0.00  1.00  0.00  0.00  0.00  0.17  0.00
  WS02003060WS02003069    1.00   0.00  0.00  0.00  1.00  0.00  0.00  0.00  0.04  0.00
  WS02003059WS02003060    1.00   0.00  0.00  0.00  1.00  0.00  0.00  0.00  0.01  0.00
  HS02004901HS02004770    1.00   0.04  0.00  0.00  0.96  0.00  0.00  0.00  0.03  0.00
  HS02004876HS02004881    1.00   0.00  0.00  0.00  1.00  0.00  0.00  0.00  0.00  0.00
  HS02004870HS02004876    1.00   0.00  0.00  0.00  1.00  0.00  0.00  0.00  0.95  0.00
  HS02004842HS02004848    1.00   0.00  0.04  0.00  0.96  0.00  0.00  0.00  0.69  0.00
  HS02004837HS02004842    1.00   0.00  0.00  0.00  1.00  0.00  0.00  0.00  0.11  0.00
  HS02004830HS02004837    1.00   0.00  0.00  0.00  1.00  0.00  0.00  0.00  0.99  0.00
  HS02004824HS02004830    1.00   0.00  0.00  0.00  1.00  0.00  0.00  0.00  0.00  0.00
  HS02004817HS02004824    1.00   0.00  0.00  0.00  1.00  0.00  0.00  0.00  1.00  0.00
  HS02004770HS02004777    1.00   0.00  0.04  0.00  0.96  0.00  0.00  0.00  0.07  0.00
  HS02004799HS02004480    1.00   0.00  0.01  0.00  0.94  0.00  0.05  0.00  0.00  0.00
  HS02004792HS02004799    1.00   0.00  0.00  0.00  1.00  0.00  0.00  0.00  0.98  0.00
  HS02004788HS02004792    1.00   0.00  0.00  0.00  1.00  0.00  0.00  0.00  0.98  0.00
  HS02004785HS02004788    1.00   0.00  0.00  0.00  1.00  0.00  0.00  0.00  0.00  0.00
  HS02004777HS02004785    1.00   0.00  0.00  0.00  1.00  0.00  0.00  0.00  0.21  0.00
  HS02004480HS02004478    1.00   0.05  0.00  0.00  0.76  0.00  0.00  0.19  0.00  0.00
  HS02004479HS02004480    1.00   0.01  0.00  0.00  0.99  0.00  0.00  0.00  0.16  0.00
  HS02004862HS02004870    1.00   0.00  0.00  0.00  1.00  0.00  0.00  0.00  0.05  0.00
  HS02004848HS02004852    1.00   0.04  0.00  0.00  0.96  0.00  0.00  0.00  0.70  0.00
  HS02004856HS02004862    1.00   0.00  0.07  0.00  0.93  0.00  0.00  0.00  0.74  0.00
  HS02004852HS02004856    1.00   0.04  0.01  0.00  0.95  0.00  0.00  0.00  0.82  0.00
  HS02004802HS02004478    1.00   0.04  0.01  0.00  0.95  0.00  0.00  0.00  0.00  0.00
  HS02004478WS02006287    1.00   0.05  0.00  0.00  0.91  0.03  0.00  0.00  0.81  0.00
  HS02004817HS02004807    1.00   0.00  0.04  0.00  0.96  0.00  0.00  0.00  0.00  0.00
  HS02004807HS02004802    1.00   0.04  0.00  0.00  0.95  0.00  0.00  0.00  0.01  0.00
  YS02001759YS02001757    1.00   0.00  0.00  0.00  1.00  0.00  0.00  0.00  0.17  0.00
  YS02001762YS02001759    1.00   0.00  0.00  0.00  1.00  0.00  0.00  0.00  0.05  0.00
  YS02001765YS02001762    1.00   0.00  0.00  0.00  1.00  0.00  0.00  0.00  0.23  0.00
  YS02001770YS02001767    1.00   0.00  0.00  0.00  1.00  0.00  0.00  0.00  0.00  0.00
  YS02001774YS02001770    1.00   0.00  0.05  0.00  0.95  0.00  0.00  0.00  0.07  0.00
  YS02001779YS02001774    1.00   0.00  0.00  0.00  1.00  0.00  0.00  0.00  0.27  0.00
  YS02001649YS02001757    1.00   0.00  0.00  0.00  1.00  0.00  0.00  0.00  0.19  0.00
  YS02001767YS02001765    1.00   0.00  0.00  0.00  1.00  0.00  0.00  0.00  0.01  0.00
  YS02006561YS02001783    1.00   0.07  0.00  0.00  0.20  0.73  0.00  0.00  0.73  0.00
  YS02001783YS02001784    1.00   0.00  0.07  0.00  0.93  0.00  0.00  0.00  0.00  0.00
  YS02001784YS02001785    1.00   0.00  0.00  0.00  1.00  0.00  0.00  0.00  0.26  0.00
  YS02001788YS02001790    1.00   0.00  0.00  0.00  0.32  0.68  0.00  0.00  0.65  0.00
  YS02001790YS02001791    1.00   0.00  0.00  0.00  0.26  0.74  0.00  0.00  0.49  0.00
  YS02001791YS02001793    1.00   0.00  0.00  0.00  0.29  0.71  0.00  0.00  0.02  0.00
  YS02001910YS02001907    1.00   0.00  0.00  0.00  0.99  0.00  0.00  0.00  0.13  0.00
  YS02001786YS02001788    1.00   0.00  0.00  0.00  0.30  0.70  0.00  0.00  0.00  0.00
  YS02001915YS02001910    1.00   0.00  0.00  0.00  1.00  0.00  0.00  0.00  0.24  0.00
  YS02001918YS02001915    1.00   0.00  0.00  0.00  1.00  0.00  0.00  0.00  0.81  0.00
  YS02001923YS02001920    1.00   0.00  0.00  0.00  1.00  0.00  0.00  0.00  1.00  0.00
  YS02001926YS02001923    1.00   0.00  0.02  0.00  0.00  0.00  0.98  0.00  0.00  0.00
  YS02001929YS02001926    1.00   0.00  0.04  0.00  0.96  0.00  0.00  0.00  0.86  0.00
  YS02001920YS02001918    1.00   0.00  0.00  0.00  1.00  0.00  0.00  0.00  0.00  0.00
  YS02001629YS02163301    1.00   0.06  0.00  0.00  0.94  0.00  0.00  0.00  0.00  0.00
  YS02001619YS02001622    1.00   0.04  0.00  0.00  0.96  0.00  0.00  0.00  0.00  0.00
  YS02001622YS02001625    1.00   0.04  0.00  0.00  0.96  0.00  0.00  0.00  0.13  0.00
  YS02001625YS02001629    1.00   0.04  0.03  0.00  0.92  0.00  0.01  0.00  0.00  0.00
  YS02163301YS02001633    1.00   0.00  0.06  0.00  0.94  0.00  0.00  0.00  0.00  0.00
  YS02163601YS02164001    1.00   0.00  0.03  0.00  0.97  0.00  0.00  0.00  0.00  0.00
  YS02164001YS02001641    1.00   0.00  0.03  0.00  0.97  0.00  0.00  0.00  0.07  0.00
  YS02001641YS02001644    1.00   0.00  0.00  0.00  1.00  0.00  0.00  0.00  0.00  0.00
  YS02001647YS02001649    1.00   0.00  0.07  0.00  0.93  0.00  0.00  0.00  0.01  0.00
  YS02006553YS02006556    1.00   0.00  0.00  0.00  1.00  0.00  0.00  0.00  0.03  0.00
  YS02006556YS02006558    1.00   0.00  0.00  0.00  1.00  0.00  0.00  0.00  0.00  0.00
  YSB6556YSB1171          1.00   0.01  0.03  0.00  0.96  0.00  0.00  0.00  0.00  0.00
  YS02001907YS02006553    1.00   0.00  0.00  0.00  1.00  0.00  0.00  0.00  0.00  0.00
  YS02006558YS02006561    1.00   0.07  0.00  0.00  0.00  0.93  0.00  0.00  0.72  0.00
  YS02001633YS02163601    1.00   0.00  0.00  0.00  1.00  0.00  0.00  0.00  0.20  0.00
  YS02001644YS02001647    1.00   0.00  0.07  0.00  0.93  0.00  0.00  0.00  0.00  0.00
  YS02001745YS02001748    1.00   0.00  0.00  0.00  0.54  0.18  0.00  0.27  0.55  0.00
  YS02001748YS02001751    1.00   0.00  0.00  0.00  0.98  0.02  0.00  0.00  0.26  0.00
  YS02001751YS02001754    1.00   0.00  0.00  0.00  0.93  0.00  0.00  0.07  0.02  0.00
  YS02001754YS02001757    1.00   0.00  0.00  0.00  1.00  0.00  0.00  0.00  0.27  0.00
  YS02001882YS02001884    1.00   0.06  0.00  0.00  0.94  0.00  0.00  0.00  0.00  0.00
  YS02001884YS02001887    1.00   0.01  0.03  0.00  0.96  0.00  0.00  0.00  0.00  0.00
  YS02001890YS02001895    1.00   0.00  0.06  0.00  0.94  0.00  0.00  0.00  0.00  0.00
  YS02001895YS02001898    1.00   0.06  0.00  0.00  0.93  0.00  0.01  0.00  0.00  0.00
  YS02001898YS02001901    1.00   0.06  0.00  0.00  0.94  0.00  0.00  0.00  0.02  0.00
  YS02001901YS02001904    1.00   0.06  0.00  0.00  0.94  0.00  0.00  0.00  0.00  0.00
  YS02001904YS02001907    1.00   0.00  0.06  0.00  0.94  0.00  0.00  0.00  0.00  0.00
  YS02001887YS02001890    1.00   0.00  0.00  0.00  0.99  0.00  0.01  0.00  0.00  0.00
  YS02001652YS02001649    1.00   0.00  0.00  0.00  1.00  0.00  0.00  0.00  0.26  0.00
  YS02001655YS02001652    1.00   0.00  0.00  0.00  0.93  0.00  0.00  0.07  0.02  0.00
  YS02001658YS02001655    1.00   0.00  0.05  0.00  0.92  0.02  0.00  0.00  0.22  0.00
  YS02001661YS02001658    1.00   0.05  0.00  0.00  0.68  0.27  0.00  0.00  0.72  0.00
  YS02001664YS02001661    1.00   0.04  0.00  0.00  0.84  0.12  0.00  0.00  0.86  0.00
  YSB1154YSB6556          1.00   0.04  0.00  0.00  0.96  0.00  0.00  0.00  0.02  0.00
  YSB1174YSB1171          1.00   0.01  0.03  0.00  0.96  0.00  0.00  0.00  0.00  0.00
  YSB1171HS02004479       1.00   0.01  0.00  0.00  0.99  0.00  0.00  0.00  0.13  0.00
  HS02004881HS02006253    1.00   0.01  0.00  0.00  0.91  0.00  0.00  0.08  0.69  0.00
  YS02001793JiankangQianchi    1.00   0.00  0.00  0.00  0.66  0.34  0.00  0.00  0.44  0.00
  YS02001757CaochengTiaoxuchi    1.00   0.00  0.08  0.00  0.92  0.00  0.00  0.00  0.00  0.00
  WSF200WS02003060        1.00   0.00  0.05  0.00  0.78  0.16  0.00  0.00  0.41  0.00
  1                       1.00   0.00  0.00  0.00  0.00  1.00  0.00  0.00  0.31  0.00
  2                       1.00   1.00  0.00  0.00  0.00  0.00  0.00  0.00  0.00  0.00
  3                       1.00   0.52  0.00  0.00  0.00  0.48  0.00  0.00  0.57  0.00
  4                       1.00   1.00  0.00  0.00  0.00  0.00  0.00  0.00  0.00  0.00
  
  
  *************************
  Conduit Surcharge Summary
  *************************
  
  ----------------------------------------------------------------------------
                                                           Hours        Hours 
                         --------- Hours Full --------   Above Full   Capacity
  Conduit                Both Ends  Upstream  Dnstream   Normal Flow   Limited
  ----------------------------------------------------------------------------
  WS02006229WS02006228        0.55      0.61      0.55      2.79         0.55
  WS02006256WS02006235        5.44      5.44      6.60      2.61         0.01
  WS02006249WS02006248        0.01      0.01      0.01      5.38         0.01
  WS02006247WS02006245        0.01      0.01      0.01      5.40         0.01
  WS02006235WS02006234        0.01      0.01      0.01      5.46         0.01
  WS02006231WS02006230        0.01      0.01      0.01      5.45         0.01
  WS02006230WS02006229        1.06      2.64      1.06      5.57         1.06
  WS02006228WS02006109        0.58      0.78      0.58      2.98         0.58
  WS02006111WS02006112        0.01      0.01      2.81      0.01         0.01
  WS02006110WS02006113        0.01      0.01      0.67      0.01         0.01
  WS02006109WS02006110        0.01      0.01      0.78      0.01         0.01
  WS02004404WS02004405        0.01      0.01      0.01      5.56         0.01
  WS02003072WS02003073        0.01      0.01      0.01      5.48         0.01
  YS02001759YS02001757        0.03      0.03      3.84      0.01         0.01
  YS02001762YS02001759        0.01      0.01      0.03      0.01         0.01
  YS02001649YS02001757        0.01      0.01      3.84      0.01         0.01
  YS02001788YS02001790        0.01      0.01      1.12      0.01         0.01
  YS02001790YS02001791        1.12      1.12      1.25      0.01         0.01
  YS02001791YS02001793        1.25      1.25      1.52      0.01         0.01
  YS02001754YS02001757        0.01      0.01      3.84      0.01         0.01
  YS02001793JiankangQianchi        1.45      1.45      4.03      0.01         0.01
  YS02001757CaochengTiaoxuchi        0.01      0.01      3.84      0.01         0.01
  
  
  ***************
  Pumping Summary
  ***************
  
  ---------------------------------------------------------------------------------------------------------
                                                  Min       Avg       Max     Total     Power    % Time Off
                        Percent   Number of      Flow      Flow      Flow    Volume     Usage    Pump Curve
  Pump                 Utilized   Start-Ups       LPS       LPS       LPS  10^6 ltr     Kw-hr    Low   High
  ---------------------------------------------------------------------------------------------------------
  CC-Pump-1                0.00           0      0.00      0.00      0.00     0.000      0.00    0.0    0.0
  CC-Pump-2               70.01           1      0.00    198.90    200.00     3.910     14.46    0.0   68.0
  JK-Pump-1               48.93           2      0.00    184.15    300.00     2.045     33.53    0.0    0.0
  JK-Pump-2               12.76           1      0.00    101.30    300.00     0.095      1.48    0.0    0.0
  XR-Pump-1               97.86           1      0.00     93.93     95.00     2.536     47.62    0.0    0.0
  XR-Pump-2               59.57           3      0.00     87.62     95.00     1.482     30.31    0.0    0.0
  XR-Pump-3               68.08           2      0.00     89.76     95.00     1.710     33.77    0.0    0.0
  XR-Pump-4               93.61           1      0.00     94.29     95.00     2.479     46.95    0.0    0.0
  

  Analysis begun on:  Thu Jan  6 00:02:41 2022
  Analysis ended on:  Thu Jan  6 00:02:43 2022
  Total elapsed time: 00:00:02