
  EPA STORM WATER MANAGEMENT MODEL - VERSION 5.1 (Build 5.3.0.dev0)
  --------------------------------------------------------------

  WARNING 04: minimum elevation drop used for Conduit WS02004404WS02004405
  WARNING 03: negative offset ignored for Link YS02001904YS02001907
  
  *********************************************************
  NOTE: The summary statistics displayed in this report are
  based on results found at every computational time step,  
  not just on results from each reporting time step.
  *********************************************************
  
  ****************
  Analysis Options
  ****************
  Flow Units ............... LPS
  Process Models:
    Rainfall/Runoff ........ YES
    RDII ................... NO
    Snowmelt ............... NO
    Groundwater ............ NO
    Flow Routing ........... YES
    Ponding Allowed ........ NO
    Water Quality .......... NO
  Infiltration Method ...... HORTON
  Flow Routing Method ...... DYNWAVE
  Surcharge Method ......... EXTRAN
  Starting Date ............ 08/28/2015 08:00:00
  Ending Date .............. 08/28/2015 15:50:00
  Antecedent Dry Days ...... 8.0
  Report Time Step ......... 00:01:00
  Wet Time Step ............ 00:01:00
  Dry Time Step ............ 00:01:00
  Routing Time Step ........ 5.00 sec
  Variable Time Step ....... YES
  Maximum Trials ........... 8
  Number of Threads ........ 4
  Head Tolerance ........... 0.001500 m
  
  
  **************************        Volume         Depth
  Runoff Quantity Continuity     hectare-m            mm
  **************************     ---------       -------
  Total Precipitation ......         2.495         5.462
  Evaporation Loss .........         0.000         0.000
  Infiltration Loss ........         0.624         1.367
  Surface Runoff ...........         1.004         2.198
  Final Storage ............         0.867         1.898
  Continuity Error (%) .....        -0.018
  
  
  **************************        Volume        Volume
  Flow Routing Continuity        hectare-m      10^6 ltr
  **************************     ---------     ---------
  Dry Weather Inflow .......         0.616         6.165
  Wet Weather Inflow .......         1.003        10.034
  Groundwater Inflow .......         0.000         0.000
  RDII Inflow ..............         0.000         0.000
  External Inflow ..........         0.102         1.024
  External Outflow .........         1.552        15.516
  Flooding Loss ............         0.244         2.441
  Evaporation Loss .........         0.000         0.000
  Exfiltration Loss ........         0.000         0.000
  Initial Stored Volume ....         0.076         0.761
  Final Stored Volume ......         0.272         2.721
  Continuity Error (%) .....       -14.993
  
  
  *************************
  Highest Continuity Errors
  *************************
  Node HS02004842 (30.09%)
  Node YS02001884 (24.57%)
  Node YS02001774 (7.69%)
  Node YSB1171 (7.64%)
  Node HS02004901 (6.10%)
  
  
  ***************************
  Time-Step Critical Elements
  ***************************
  Link WS02006252WS02006251 (91.73%)
  Link WS02006280WS02006229 (2.51%)
  Link 3 (2.00%)
  
  
  ********************************
  Highest Flow Instability Indexes
  ********************************
  Link WS02006113WS02006111 (54)
  Link WS02006111WS02006112 (31)
  Link YS02163301YS02001633 (3)
  Link YS02001765YS02001762 (3)
  Link YS02001641YS02001644 (3)
  
  
  *************************
  Routing Time Step Summary
  *************************
  Minimum Time Step           :     0.54 sec
  Average Time Step           :     0.90 sec
  Maximum Time Step           :     5.00 sec
  Percent in Steady State     :    -0.00
  Average Iterations per Step :     2.23
  Percent Not Converging      :     2.86
  
  
  ***************************
  Subcatchment Runoff Summary
  ***************************
  
  ------------------------------------------------------------------------------------------------------------------------------
                            Total      Total      Total      Total     Imperv       Perv      Total       Total     Peak  Runoff
                           Precip      Runon       Evap      Infil     Runoff     Runoff     Runoff      Runoff   Runoff   Coeff
  Subcatchment                 mm         mm         mm         mm         mm         mm         mm    10^6 ltr      LPS
  ------------------------------------------------------------------------------------------------------------------------------
  sub0                       5.46       0.00       0.00       0.38       3.81       0.00       3.81        0.00     1.22   0.698
  sub1                       5.46       0.00       0.00       0.60       3.61       0.00       3.61        0.02     6.40   0.660
  sub2                       5.46       0.00       0.00       2.02       2.54       0.00       2.54        0.02     5.67   0.464
  sub3                       5.46       0.00       0.00       2.02       2.50       0.00       2.50        0.06    11.67   0.458
  sub4                       5.46       0.00       0.00       0.60       3.47       0.00       3.47        0.07    13.12   0.635
  sub5                       5.46       0.00       0.00       0.38       3.77       0.00       3.77        0.04    11.38   0.690
  sub7                       5.46       0.00       0.00       0.49       3.72       0.00       3.72        0.01     4.02   0.680
  sub8                       5.46       0.00       0.00       0.49       3.71       0.00       3.71        0.02     7.09   0.679
  sub9                       5.46       0.00       0.00       0.49       3.70       0.00       3.70        0.02     5.25   0.678
  sub10                      5.46       0.00       0.00       0.44       3.73       0.00       3.73        0.04    11.36   0.684
  sub11                      5.46       0.00       0.00       0.44       3.75       0.00       3.75        0.04    13.33   0.687
  sub12                      5.46       0.00       0.00       0.71       3.56       0.00       3.56        0.03    11.29   0.652
  sub14                      5.46       0.00       0.00       0.49       3.70       0.00       3.70        0.04    10.26   0.678
  sub15                      5.46       0.00       0.00       1.64       2.85       0.00       2.85        0.05    13.93   0.521
  sub16                      5.46       0.00       0.00       1.80       2.74       0.00       2.74        0.03     9.93   0.502
  sub17                      5.46       0.00       0.00       1.75       2.78       0.00       2.78        0.02     8.02   0.509
  sub22                      5.46       0.00       0.00       2.35       2.32       0.00       2.32        0.15    45.61   0.426
  sub23                      5.46       0.00       0.00       2.02       2.57       0.00       2.57        0.12    38.85   0.471
  sub60                      5.46       0.00       0.00       0.66       2.43       0.00       2.43        0.74    67.28   0.446
  sub61                      5.46       0.00       0.00       0.93       2.62       0.00       2.62        0.81    84.42   0.480
  sub62                      5.46       0.00       0.00       0.44       2.81       0.00       2.81        0.86    86.35   0.514
  sub63                      5.46       0.00       0.00       1.58       2.34       0.00       2.34        0.71    78.70   0.429
  sub64                      5.46       0.00       0.00       0.82       2.33       0.00       2.33        0.71    63.86   0.426
  sub65                      5.46       0.00       0.00       0.71       2.35       0.00       2.35        0.72    64.75   0.431
  sub66                      5.46       0.00       0.00       1.58       2.03       0.00       2.03        0.62    58.67   0.373
  sub67                      5.46       0.00       0.00       0.44       3.11       0.00       3.11        0.96   110.55   0.569
  sub68                      5.46       0.00       0.00       0.76       2.80       0.00       2.80        0.86    93.27   0.512
  sub69                      5.46       0.00       0.00       0.82       3.04       0.00       3.04        0.71    92.37   0.557
  sub70                      5.46       3.10       0.00       2.91       3.68       0.00       3.68        0.84    73.56   0.429
  sub71                      5.46       0.00       0.00       0.44       2.68       0.00       2.68        0.63    60.33   0.490
  sub72                      5.46       0.00       0.00       0.38       1.86       0.00       1.86        0.38    28.02   0.340
  sub73                      5.46       3.58       0.00       3.07       3.70       0.00       3.70        0.87    62.93   0.409
  sub74                      5.46       0.00       0.00       4.10       0.92       0.00       0.92        0.37    51.48   0.168
  
  
  ******************
  Node Depth Summary
  ******************
  
  ---------------------------------------------------------------------------------
                                 Average  Maximum  Maximum  Time of Max    Reported
                                   Depth    Depth      HGL   Occurrence   Max Depth
  Node                 Type       Meters   Meters   Meters  days hr:min      Meters
  ---------------------------------------------------------------------------------
  WS02001211           JUNCTION     0.76     0.78     5.62     0  02:53        0.78
  WS02001212           JUNCTION     0.46     0.48     5.55     0  02:52        0.48
  WS02001213           JUNCTION     0.69     0.72     5.49     0  02:52        0.72
  WS02003069           JUNCTION     0.46     0.52     5.10     0  02:50        0.52
  WS02003072           JUNCTION     0.52     0.58     4.95     0  02:51        0.58
  WS02003073           JUNCTION     0.31     0.35     4.42     0  02:52        0.35
  WS02003060           JUNCTION     0.41     0.46     5.39     0  02:50        0.46
  WS02003066           JUNCTION     0.20     0.26     5.81     0  02:48        0.26
  WS02003059           JUNCTION     0.74     0.77     5.46     0  02:51        0.77
  WS02003067           JUNCTION     0.51     0.63     5.95     0  02:48        0.63
  WS02004401           JUNCTION     0.59     0.72     6.72     0  02:43        0.72
  WS02004402           JUNCTION     0.62     0.75     6.71     0  02:44        0.75
  WS02004403           JUNCTION     0.64     0.78     6.71     0  02:44        0.78
  WS02004404           JUNCTION     0.72     0.85     6.70     0  02:44        0.85
  WS02004406           JUNCTION     0.73     0.86     6.69     0  02:44        0.86
  WS02004409           JUNCTION     0.40     0.54     6.31     0  02:47        0.54
  WS02004410           JUNCTION     0.43     0.56     6.28     0  02:47        0.56
  WS02004411           JUNCTION     0.45     0.58     6.26     0  02:47        0.58
  WS02004412           JUNCTION     0.47     0.59     6.23     0  02:48        0.59
  WS02004413           JUNCTION     0.63     0.76     6.23     0  02:48        0.76
  WS02004405           JUNCTION     0.72     0.85     6.70     0  02:44        0.85
  WS02006109           JUNCTION     0.65     0.80     7.42     0  02:38        0.80
  WS02006110           JUNCTION     0.66     0.79     7.38     0  02:38        0.79
  WS02006111           JUNCTION     0.18     0.24     6.95     0  02:39        0.24
  WS02006112           JUNCTION     0.74     0.90     6.78     0  02:43        0.90
  WS02006113           JUNCTION     0.28     0.37     7.26     0  02:38        0.37
  WS02006115           JUNCTION     0.47     0.61     6.75     0  02:43        0.61
  WS02006116           JUNCTION     0.55     0.70     6.74     0  02:43        0.70
  WS02006230           JUNCTION     0.57     0.75     7.49     0  02:38        0.75
  WS02006231           JUNCTION     0.38     0.45     7.57     0  02:40        0.45
  WS02006232           JUNCTION     0.50     0.58     7.62     0  02:41        0.58
  WS02006234           JUNCTION     0.40     0.48     7.63     0  02:41        0.48
  WS02006235           JUNCTION     0.43     0.50     7.67     0  02:41        0.50
  WS02006238           JUNCTION     0.46     0.53     7.68     0  02:41        0.53
  WS02006240           JUNCTION     0.38     0.45     7.74     0  02:41        0.45
  WS02006242           JUNCTION     0.46     0.53     7.80     0  02:41        0.53
  WS02006243           JUNCTION     0.35     0.41     7.83     0  02:40        0.41
  WS02006245           JUNCTION     0.35     0.41     7.89     0  02:39        0.41
  WS02006247           JUNCTION     0.38     0.44     7.94     0  02:38        0.44
  WS02006248           JUNCTION     0.33     0.39     7.97     0  02:37        0.39
  WS02006249           JUNCTION     0.37     0.43     8.03     0  02:35        0.43
  WS02006239           JUNCTION     0.42     0.50     7.71     0  02:41        0.50
  WS02006251           JUNCTION     0.36     0.42     8.09     0  02:32        0.42
  WS02006252           JUNCTION     0.32     0.35     8.59     0  02:25        0.35
  WS02006253           JUNCTION     0.39     0.45     8.09     0  02:32        0.45
  WS02006256           JUNCTION     0.67     1.19     8.12     0  00:30        1.19
  WS02004138           JUNCTION     0.19     0.19     7.44     0  01:20        0.19
  WS02004407           JUNCTION     0.19     0.25     6.56     0  02:44        0.25
  WS02006228           JUNCTION     0.63     0.80     7.45     0  02:38        0.80
  WS02006229           JUNCTION     0.60     0.77     7.47     0  02:38        0.77
  WS02006280           JUNCTION     0.05     0.14     8.41     0  02:20        0.14
  WS02006284           JUNCTION     0.34     0.47     8.87     0  02:20        0.47
  WS02006287           JUNCTION     0.07     0.20     9.15     0  02:20        0.20
  WSF200               JUNCTION     0.17     0.23     5.47     0  02:48        0.23
  HS02004901           JUNCTION     0.11     0.22    10.04     0  02:17        0.22
  HS02004881           JUNCTION     0.01     0.02     9.05     0  02:19        0.02
  HS02004876           JUNCTION     0.03     0.10     9.13     0  02:18        0.10
  HS02004870           JUNCTION     0.01     0.04     9.32     0  02:20        0.04
  HS02004862           JUNCTION     0.01     0.04     9.43     0  02:21        0.04
  HS02004856           JUNCTION     0.07     0.10     9.53     0  02:20        0.10
  HS02004852           JUNCTION     0.01     0.02     9.54     0  02:21        0.02
  HS02004848           JUNCTION     0.01     0.02     9.63     0  02:19        0.02
  HS02004842           JUNCTION     0.33     0.36     9.63     0  02:19        0.36
  HS02004837           JUNCTION     0.03     0.04     9.62     0  02:19        0.04
  HS02004830           JUNCTION     0.04     0.06     9.53     0  02:20        0.06
  HS02004824           JUNCTION     0.02     0.04     9.44     0  02:23        0.04
  HS02004817           JUNCTION     0.42     0.51     9.36     0  02:20        0.51
  HS02004807           JUNCTION     0.11     0.19     9.36     0  02:20        0.19
  HS02004802           JUNCTION     0.15     0.23     9.35     0  02:20        0.23
  HS02004799           JUNCTION     0.09     0.24     9.45     0  02:18        0.24
  HS02004792           JUNCTION     0.02     0.09     9.61     0  02:17        0.09
  HS02004788           JUNCTION     0.02     0.07     9.96     0  02:18        0.07
  HS02004785           JUNCTION     0.03     0.12    10.03     0  02:18        0.12
  HS02004777           JUNCTION     0.13     0.24    10.04     0  02:18        0.24
  HS02004770           JUNCTION     0.10     0.21    10.04     0  02:18        0.21
  HS02004480           JUNCTION     0.06     0.18     9.42     0  02:18        0.18
  HS02004479           JUNCTION     0.09     0.22     9.43     0  02:18        0.22
  HS02004478           JUNCTION     0.05     0.12     9.34     0  02:19        0.12
  YS02001745           JUNCTION     0.07     0.11     7.63     0  03:01        0.11
  YS02001748           JUNCTION     0.29     0.41     7.49     0  04:11        0.41
  YS02001751           JUNCTION     0.48     0.61     7.49     0  04:10        0.61
  YS02001754           JUNCTION     0.73     0.89     7.49     0  04:11        0.88
  YS02001762           JUNCTION     0.92     1.15     7.55     0  04:15        1.12
  YS02001765           JUNCTION     0.88     1.10     7.55     0  04:15        1.07
  YS02001767           JUNCTION     0.84     1.11     7.60     0  04:15        1.04
  YS02001770           JUNCTION     0.83     0.98     7.47     0  05:03        0.98
  YS02001774           JUNCTION     0.90     1.06     7.48     0  04:20        1.06
  YS02001779           JUNCTION     0.65     0.82     7.51     0  04:12        0.81
  YS02001882           JUNCTION     0.27     0.43     7.14     0  02:58        0.43
  YS02001884           JUNCTION     0.36     0.53     7.14     0  02:58        0.52
  YS02001759           JUNCTION     0.96     1.18     7.54     0  04:15        1.14
  YS02001887           JUNCTION     0.44     0.60     7.14     0  02:58        0.60
  YS02001890           JUNCTION     0.47     0.63     7.14     0  02:58        0.63
  YS02001898           JUNCTION     0.24     0.39     7.12     0  02:59        0.39
  YS02001901           JUNCTION     0.36     0.52     7.12     0  02:59        0.52
  YS02001904           JUNCTION     0.34     0.49     7.12     0  03:00        0.49
  YS02001907           JUNCTION     0.67     0.83     7.12     0  02:59        0.83
  YS02001910           JUNCTION     0.45     0.62     7.12     0  02:59        0.62
  YS02001915           JUNCTION     0.26     0.40     7.12     0  02:59        0.40
  YS02001918           JUNCTION     0.07     0.09     7.16     0  03:03        0.09
  YS02001619           JUNCTION     0.44     0.57     7.49     0  04:33        0.56
  YS02001629           JUNCTION     0.78     0.94     7.49     0  04:28        0.93
  YS02001641           JUNCTION     0.89     1.12     7.55     0  04:15        1.06
  YS02001644           JUNCTION     0.89     1.11     7.55     0  04:15        1.08
  YS02001652           JUNCTION     0.74     0.90     7.49     0  04:27        0.89
  YS02001655           JUNCTION     0.50     0.65     7.50     0  04:26        0.64
  YS02001920           JUNCTION     0.17     0.20     7.20     0  03:03        0.20
  YS02001923           JUNCTION     0.06     0.08     7.34     0  03:02        0.08
  YS02001926           JUNCTION     0.13     0.17     7.61     0  03:01        0.17
  YS02001929           JUNCTION     0.06     0.08     7.77     0  03:01        0.08
  YS02001658           JUNCTION     0.24     0.35     7.49     0  04:57        0.34
  YS02001661           JUNCTION     0.14     0.19     7.59     0  02:50        0.19
  YS02001664           JUNCTION     0.06     0.11     8.03     0  02:49        0.11
  YS02001622           JUNCTION     0.46     0.57     7.47     0  04:55        0.57
  YS02001633           JUNCTION     0.88     1.08     7.53     0  04:26        1.04
  YS02001649           JUNCTION     0.93     1.10     7.49     0  04:13        1.09
  YS02001757           JUNCTION     1.06     1.24     7.50     0  04:15        1.21
  YS02001895           JUNCTION     0.23     0.39     7.13     0  02:58        0.39
  YS02001625           JUNCTION     0.74     0.89     7.49     0  04:32        0.89
  YS02163301           JUNCTION     0.81     0.98     7.50     0  04:49        0.97
  YS02163601           JUNCTION     0.93     1.13     7.53     0  04:24        1.09
  YS02164001           JUNCTION     0.87     1.09     7.55     0  04:24        1.04
  YS02001647           JUNCTION     0.73     0.89     7.50     0  04:36        0.88
  YSB1154              JUNCTION     0.23     0.37     9.43     0  02:19        0.37
  YSB6556              JUNCTION     0.13     0.26     9.43     0  02:18        0.26
  YSB1174              JUNCTION     0.19     0.32     9.43     0  02:18        0.32
  YSB1171              JUNCTION     0.39     0.52     9.43     0  02:18        0.52
  YS02006553           JUNCTION     0.67     0.84     7.12     0  02:59        0.84
  YS02006561           JUNCTION     0.13     0.21     6.87     0  03:00        0.21
  YS02006556           JUNCTION     0.64     0.81     7.12     0  03:00        0.81
  YS02006558           JUNCTION     0.69     0.85     7.12     0  03:00        0.85
  YS02001783           JUNCTION     0.44     0.64     6.78     0  02:45        0.61
  YS02001784           JUNCTION     0.50     0.71     6.78     0  02:45        0.65
  YS02001786           JUNCTION     0.52     0.69     6.72     0  02:46        0.65
  YS02001788           JUNCTION     0.56     0.74     6.72     0  02:45        0.74
  YS02001790           JUNCTION     0.85     1.28     6.92     0  02:42        1.03
  YS02001791           JUNCTION     0.99     1.51     6.98     0  02:41        1.17
  YS02001793           JUNCTION     1.54     2.52     7.35     0  02:38        1.78
  WS02004139           JUNCTION     0.71     0.72     5.63     0  02:53        0.72
  WSC                  OUTFALL      0.31     0.35     1.02     0  02:52        0.35
  3                    OUTFALL      0.00     0.19     6.19     0  00:30        0.19
  4                    OUTFALL      0.00     0.00     7.00     0  00:00        0.00
  5                    OUTFALL      0.00     0.00     5.00     0  00:00        0.00
  JK-storage           STORAGE      5.25     5.80     6.60     0  02:44        5.80
  CC-storage           STORAGE      0.31     0.45     7.45     0  05:08        0.45
  XR-storage           STORAGE      0.24     5.10     3.10     0  00:21        5.10
  
  
  *******************
  Node Inflow Summary
  *******************
  
  -------------------------------------------------------------------------------------------------
                                  Maximum  Maximum                  Lateral       Total        Flow
                                  Lateral    Total  Time of Max      Inflow      Inflow     Balance
                                   Inflow   Inflow   Occurrence      Volume      Volume       Error
  Node                 Type           LPS      LPS  days hr:min    10^6 ltr    10^6 ltr     Percent
  -------------------------------------------------------------------------------------------------
  WS02001211           JUNCTION      7.35   387.88     0  03:22       0.207        10.3       0.410
  WS02001212           JUNCTION      0.00   388.12     0  03:21           0        10.3       0.229
  WS02001213           JUNCTION      0.00   388.37     0  03:21           0        10.2       0.246
  WS02003069           JUNCTION      0.32   773.02     0  02:50     0.00902        15.5       0.202
  WS02003072           JUNCTION      0.00   773.00     0  02:51           0        15.4       0.245
  WS02003073           JUNCTION      1.82   774.81     0  02:51      0.0514        15.5       0.277
  WS02003060           JUNCTION     16.53   772.68     0  02:50       0.466        15.5       0.190
  WS02003066           JUNCTION      0.00   370.49     0  02:48           0        4.86       0.077
  WS02003059           JUNCTION      0.00   388.80     0  03:20           0        10.2       0.410
  WS02003067           JUNCTION      0.00   370.48     0  02:48           0        4.87       0.168
  WS02004401           JUNCTION      0.00   374.30     0  02:42           0        5.07       0.374
  WS02004402           JUNCTION      0.00   373.69     0  02:42           0        5.05       0.357
  WS02004403           JUNCTION      0.00   373.35     0  02:43           0        5.03       0.329
  WS02004404           JUNCTION      0.16   373.33     0  02:43     0.00457        5.02       0.253
  WS02004406           JUNCTION      0.00   373.23     0  02:44           0        4.99       0.619
  WS02004409           JUNCTION      0.00   373.18     0  02:44           0        4.95       0.266
  WS02004410           JUNCTION      0.00   372.12     0  02:45           0        4.94       0.307
  WS02004411           JUNCTION      0.00   371.33     0  02:46           0        4.92       0.321
  WS02004412           JUNCTION      0.00   370.85     0  02:47           0        4.91       0.356
  WS02004413           JUNCTION      0.00   370.57     0  02:47           0        4.89       0.541
  WS02004405           JUNCTION      0.04   373.30     0  02:44     0.00107        5.01       0.379
  WS02006109           JUNCTION      1.23   375.03     0  02:38      0.0347        5.16       0.396
  WS02006110           JUNCTION      0.00   375.01     0  02:38           0        5.14       0.364
  WS02006111           JUNCTION      0.00   382.25     0  02:39           0        5.11       0.075
  WS02006112           JUNCTION      8.02   379.71     0  02:39      0.0238        5.13       0.526
  WS02006113           JUNCTION      0.00   375.02     0  02:38           0        5.12       0.151
  WS02006115           JUNCTION      0.00   377.29     0  02:40           0         5.1       0.335
  WS02006116           JUNCTION      0.00   375.35     0  02:41           0        5.08       0.313
  WS02006230           JUNCTION     10.28   237.73     0  02:44        0.29        4.32       0.251
  WS02006231           JUNCTION      0.00   226.95     0  02:44           0        4.04       0.177
  WS02006232           JUNCTION      0.00   226.64     0  02:43           0        4.05       0.352
  WS02006234           JUNCTION      0.00   226.37     0  02:43           0        4.06       0.170
  WS02006235           JUNCTION      0.00   226.32     0  02:42           0        4.09       0.199
  WS02006238           JUNCTION      0.00   226.19     0  02:41           0        4.02       0.152
  WS02006240           JUNCTION      0.00   226.45     0  02:39           0        4.02       0.261
  WS02006242           JUNCTION      0.00   227.48     0  02:34           0        4.02       0.320
  WS02006243           JUNCTION      0.00   228.38     0  02:32           0        4.03       0.180
  WS02006245           JUNCTION      0.00   229.24     0  02:32           0        4.03       0.214
  WS02006247           JUNCTION      0.00   229.76     0  02:31           0        4.04       0.163
  WS02006248           JUNCTION      0.00   230.21     0  02:30           0        4.04       0.108
  WS02006249           JUNCTION      0.00   230.71     0  02:30           0        4.05       0.239
  WS02006239           JUNCTION      0.00   226.17     0  02:40           0        4.02       0.184
  WS02006251           JUNCTION      0.08   231.48     0  02:27     0.00217        4.06       0.215
  WS02006252           JUNCTION      0.00   200.00     0  02:25           0        3.93       0.011
  WS02006253           JUNCTION      1.22    35.36     0  02:19     0.00309       0.134       2.832
  WS02006256           JUNCTION      0.00   600.00     0  00:30           0        0.19       1.066
  WS02004138           JUNCTION      0.00   380.00     0  01:20           0        10.1       0.052
  WS02004407           JUNCTION      0.00   373.20     0  02:44           0        4.96       0.123
  WS02006228           JUNCTION      0.00   373.84     0  02:37           0        5.13       0.262
  WS02006229           JUNCTION      0.00   373.89     0  02:37           0        5.15       0.239
  WS02006280           JUNCTION      0.00   183.59     0  02:20           0       0.839       0.008
  WS02006284           JUNCTION      0.10   183.59     0  02:20      0.0027        0.84       0.128
  WS02006287           JUNCTION      0.00   183.51     0  02:19           0       0.838       0.087
  WSF200               JUNCTION      0.00   370.48     0  02:48           0        4.85       0.071
  HS02004901           JUNCTION      9.93     9.93     0  02:11      0.0287      0.0288       6.491
  HS02004881           JUNCTION      4.02    34.42     0  02:19      0.0125       0.131       0.231
  HS02004876           JUNCTION      6.40    30.70     0  02:19       0.024       0.119       0.444
  HS02004870           JUNCTION      7.09    24.42     0  02:19      0.0237      0.0952       0.112
  HS02004862           JUNCTION      5.87    17.79     0  02:20      0.0293      0.0717       0.236
  HS02004856           JUNCTION      5.25    11.97     0  02:19      0.0178      0.0439       3.393
  HS02004852           JUNCTION      0.00     7.04     0  02:20           0      0.0261       0.193
  HS02004848           JUNCTION     11.67    11.67     0  02:23      0.0563      0.0563       0.077
  HS02004842           JUNCTION      0.00     5.01     0  02:33           0      0.0432      43.040
  HS02004837           JUNCTION     17.71    22.02     0  02:18        0.22        0.25       0.324
  HS02004830           JUNCTION      0.15    22.16     0  02:19     0.00423       0.241       0.514
  HS02004824           JUNCTION     13.17    35.16     0  02:23      0.0738       0.313       0.172
  HS02004817           JUNCTION      0.60    35.76     0  02:23      0.0169        0.33       5.323
  HS02004807           JUNCTION     13.33    47.90     0  02:21      0.0435       0.357       1.199
  HS02004802           JUNCTION      0.00    48.08     0  02:22           0       0.352       1.166
  HS02004799           JUNCTION     10.26   115.49     0  02:17      0.0352       0.431       0.529
  HS02004792           JUNCTION     45.89   105.43     0  02:17       0.155       0.396       0.104
  HS02004788           JUNCTION     15.60    61.36     0  02:18       0.096       0.243       0.162
  HS02004785           JUNCTION      0.15    46.16     0  02:17     0.00423       0.149       0.325
  HS02004777           JUNCTION      0.03    46.53     0  02:16    0.000846       0.149       3.602
  HS02004770           JUNCTION     38.85    47.67     0  02:13       0.123        0.15       2.114
  HS02004480           JUNCTION      0.00   136.23     0  02:18           0       0.502       0.143
  HS02004479           JUNCTION      0.00    21.13     0  02:20           0      0.0833       0.884
  HS02004478           JUNCTION      0.00   183.51     0  02:19           0       0.839       0.075
  YS02001745           JUNCTION     67.29    67.29     0  03:01       0.738       0.738       0.108
  YS02001748           JUNCTION      0.04   176.84     0  03:40     0.00127        0.85       0.262
  YS02001751           JUNCTION      0.01   222.53     0  03:26     0.00031       0.848       1.010
  YS02001754           JUNCTION      0.26   157.31     0  03:27     0.00733       0.806       2.000
  YS02001762           JUNCTION      0.00   125.76     0  03:22           0       0.816       2.478
  YS02001765           JUNCTION      0.00   100.70     0  03:22           0       0.815       2.640
  YS02001767           JUNCTION      0.54   121.32     0  04:02      0.0151       0.833       3.717
  YS02001770           JUNCTION     86.51   129.54     0  04:12       0.867       0.996       2.619
  YS02001774           JUNCTION      0.00    77.96     0  04:03           0       0.261       8.334
  YS02001779           JUNCTION      0.01    80.14     0  04:12    0.000141       0.114       9.404
  YS02001882           JUNCTION      0.00     3.52     0  02:08           0     0.00483      50.935
  YS02001884           JUNCTION      0.00    10.09     0  02:08           0      0.0194      32.581
  YS02001759           JUNCTION     84.46   191.91     0  03:21        0.81        1.59       1.397
  YS02001887           JUNCTION    111.00   111.00     0  02:47       0.971       0.981       0.724
  YS02001890           JUNCTION      0.00   110.36     0  02:49           0       0.958       0.814
  YS02001898           JUNCTION      0.00   109.89     0  02:52           0       0.947       0.224
  YS02001901           JUNCTION      0.00   109.76     0  02:52           0       0.946       0.575
  YS02001904           JUNCTION      0.00   109.38     0  02:53           0       0.945       0.535
  YS02001907           JUNCTION      0.00   199.93     0  03:02           0        2.02       1.095
  YS02001910           JUNCTION      0.00    91.19     0  03:01           0        1.08       0.932
  YS02001915           JUNCTION     60.35    90.96     0  03:01       0.633        1.09       0.408
  YS02001918           JUNCTION      0.00    30.87     0  03:03           0       0.457       0.234
  YS02001619           JUNCTION     58.67    58.67     0  03:01       0.624       0.628       0.610
  YS02001629           JUNCTION      0.00   133.24     0  03:42           0       0.626       2.173
  YS02001641           JUNCTION      0.00   170.36     0  03:37           0        1.24       1.322
  YS02001644           JUNCTION     63.90   209.95     0  03:17       0.708        1.93       1.010
  YS02001652           JUNCTION      0.00   140.14     0  03:38           0       0.791       2.076
  YS02001655           JUNCTION      0.15   220.68     0  03:31     0.00434       0.818       1.351
  YS02001920           JUNCTION      2.87    30.89     0  03:02      0.0809       0.459       0.431
  YS02001923           JUNCTION      0.04    28.02     0  03:02     0.00106       0.379       0.075
  YS02001926           JUNCTION      0.05    28.05     0  03:01     0.00147        0.38       0.541
  YS02001929           JUNCTION     28.02    28.02     0  03:01       0.378       0.378       0.073
  YS02001658           JUNCTION      0.00   168.32     0  03:35           0       0.815       0.182
  YS02001661           JUNCTION      0.00    78.70     0  02:49           0       0.709       0.095
  YS02001664           JUNCTION     78.70    78.70     0  02:49       0.709       0.709       0.023
  YS02001622           JUNCTION      0.00    99.46     0  03:41           0        0.63       1.820
  YS02001633           JUNCTION     64.95   140.37     0  03:03       0.729        1.29       2.153
  YS02001649           JUNCTION      0.00   316.88     0  03:25           0        2.65       1.241
  YS02001757           JUNCTION      0.00   502.46     0  03:20           0        4.85       1.883
  YS02001895           JUNCTION      0.00   110.04     0  02:51           0        0.95       0.381
  YS02001625           JUNCTION      0.00   163.53     0  03:43           0       0.655       4.161
  YS02163301           JUNCTION      0.00   105.12     0  03:27           0       0.581       3.419
  YS02163601           JUNCTION      0.11   148.65     0  03:25      0.0031        1.26       2.065
  YS02164001           JUNCTION      0.00   160.11     0  03:25           0        1.24       1.299
  YS02001647           JUNCTION      0.00   209.08     0  03:27           0        1.89       1.110
  YSB1154              JUNCTION     11.38    11.38     0  02:16      0.0427       0.044       3.390
  YSB6556              JUNCTION      0.00    11.39     0  02:18           0      0.0451       2.843
  YSB1174              JUNCTION     11.29    11.29     0  02:10      0.0311      0.0322       4.156
  YSB1171              JUNCTION      0.00    21.15     0  02:17           0      0.0828       8.268
  YS02006553           JUNCTION      0.00   200.29     0  03:02           0        2.01       0.711
  YS02006561           JUNCTION      0.00   293.07     0  03:00           0        2.84       0.020
  YS02006556           JUNCTION      0.00   200.57     0  03:03           0        2.01       0.513
  YS02006558           JUNCTION     94.15   293.08     0  03:00       0.884        2.87       0.156
  YS02001783           JUNCTION      0.00   293.07     0  03:00           0        2.84       0.254
  YS02001784           JUNCTION      1.06   364.94     0  02:46      0.0299        2.86       0.371
  YS02001786           JUNCTION      0.06   351.01     0  02:46     0.00159        2.86       0.476
  YS02001788           JUNCTION      0.07   373.14     0  02:46       0.002        2.84       0.486
  YS02001790           JUNCTION      0.15   352.12     0  02:46     0.00437        2.83       0.609
  YS02001791           JUNCTION      0.00   352.37     0  02:46           0        2.82       0.519
  YS02001793           JUNCTION      0.00   352.41     0  02:46           0         2.8       0.590
  WS02004139           JUNCTION      0.32   380.37     0  01:20     0.00905        10.1       0.424
  WSC                  OUTFALL       0.00   774.82     0  02:52           0        15.4       0.000
  3                    OUTFALL       0.00   446.15     0  00:30           0         0.1       0.000
  4                    OUTFALL       0.00     0.00     0  00:00           0           0       0.000 ltr
  5                    OUTFALL       0.00     0.00     0  00:00           0           0       0.000 ltr
  JK-storage           STORAGE       0.00   474.51     0  02:38           0        2.94       0.552
  CC-storage           STORAGE       0.00   489.87     0  03:03           0        4.69       0.323
  XR-storage           STORAGE     309.18   309.18     0  03:01        6.88        7.48     -26.313
  
  
  **********************
  Node Surcharge Summary
  **********************
  
  Surcharging occurs when water rises above the top of the highest conduit.
  ---------------------------------------------------------------------
                                               Max. Height   Min. Depth
                                   Hours       Above Crown    Below Rim
  Node                 Type      Surcharged         Meters       Meters
  ---------------------------------------------------------------------
  YS02001762           JUNCTION        3.05          0.152        0.998
  YS02001765           JUNCTION        1.47          0.101        0.999
  YS02001767           JUNCTION        0.04          0.107        0.923
  YS02001774           JUNCTION        2.28          0.061        0.989
  YS02001759           JUNCTION        4.14          0.181        1.029
  YS02001641           JUNCTION        1.91          0.116        0.984
  YS02001644           JUNCTION        2.08          0.114        0.806
  YS02001633           JUNCTION        0.22          0.057        1.003
  YS02001649           JUNCTION        3.53          0.100        0.950
  YS02001757           JUNCTION        5.23          0.243        0.967
  YS02163601           JUNCTION        3.32          0.128        0.952
  YS02164001           JUNCTION        1.17          0.091        1.009
  YS02001790           JUNCTION        5.12          0.479        0.678
  YS02001791           JUNCTION        5.14          0.712        1.208
  YS02001793           JUNCTION        5.18          1.523        1.077
  
  
  *********************
  Node Flooding Summary
  *********************
  
  Flooding refers to all water that overflows a node, whether it ponds or not.
  --------------------------------------------------------------------------
                                                             Total   Maximum
                                 Maximum   Time of Max       Flood    Ponded
                        Hours       Rate    Occurrence      Volume     Depth
  Node                 Flooded       LPS   days hr:min    10^6 ltr    Meters
  --------------------------------------------------------------------------
  JK-storage              5.10    352.43      0  02:46       2.441     0.000
  
  
  **********************
  Storage Volume Summary
  **********************
  
  --------------------------------------------------------------------------------------------------
                         Average     Avg  Evap Exfil       Maximum     Max    Time of Max    Maximum
                          Volume    Pcnt  Pcnt  Pcnt        Volume    Pcnt     Occurrence    Outflow
  Storage Unit           1000 m3    Full  Loss  Loss       1000 m3    Full    days hr:min        LPS
  --------------------------------------------------------------------------------------------------
  JK-storage               0.264      91     0     0         0.291     100       0  02:44     600.00
  CC-storage               0.864       6     0     0         1.267       8       0  05:08     200.00
  XR-storage               0.028       3     0     0         0.612      66       0  00:21     380.00
  
  
  ***********************
  Outfall Loading Summary
  ***********************
  
  -----------------------------------------------------------
                         Flow       Avg       Max       Total
                         Freq      Flow      Flow      Volume
  Outfall Node           Pcnt       LPS       LPS    10^6 ltr
  -----------------------------------------------------------
  WSC                  100.00    620.56    774.82      15.416
  3                      2.00    254.00    446.15       0.100
  4                      0.00      0.00      0.00       0.000
  5                      0.00      0.00      0.00       0.000
  -----------------------------------------------------------
  System                25.50    874.56    774.82      15.516
  
  
  ********************
  Link Flow Summary
  ********************
  
  -----------------------------------------------------------------------------
                                 Maximum  Time of Max   Maximum    Max/    Max/
                                  |Flow|   Occurrence   |Veloc|    Full    Full
  Link                 Type          LPS  days hr:min     m/sec    Flow   Depth
  -----------------------------------------------------------------------------
  WS02003066WSF200     CONDUIT    370.48     0  02:48      2.64    0.06    0.18
  WS02006287WS02006284 CONDUIT    183.49     0  02:20      1.56    0.09    0.21
  WS02006284WS02006280 CONDUIT    183.59     0  02:20      1.80    0.08    0.19
  WS02006280WS02006229 CONDUIT    183.59     0  02:20      2.89    0.04    0.14
  WS02006229WS02006228 CONDUIT    373.84     0  02:37      0.75    1.24    0.96
  WS02006256WS02006235 CONDUIT    158.12     0  00:23      2.30    1.67    1.00
  WS02006253WS02006251 CONDUIT     35.47     0  02:20      0.47    0.11    0.62
  WS02006252WS02006251 CONDUIT    200.32     0  02:25      1.97    0.74    0.76
  WS02006251WS02006249 CONDUIT    230.71     0  02:30      0.96    0.67    0.61
  WS02006249WS02006248 CONDUIT    230.21     0  02:30      1.05    1.26    0.57
  WS02006248WS02006247 CONDUIT    229.76     0  02:31      1.02    0.50    0.58
  WS02006247WS02006245 CONDUIT    229.24     0  02:32      1.00    1.82    0.60
  WS02006245WS02006243 CONDUIT    228.38     0  02:32      1.09    0.68    0.58
  WS02006243WS02006242 CONDUIT    227.48     0  02:34      0.95    0.49    0.65
  WS02006242WS02006240 CONDUIT    226.45     0  02:39      0.87    0.90    0.69
  WS02006240WS02006239 CONDUIT    226.17     0  02:40      0.97    0.71    0.65
  WS02006239WS02006238 CONDUIT    226.19     0  02:41      0.84    0.72    0.72
  WS02006238WS02006235 CONDUIT    226.32     0  02:42      0.91    0.51    0.74
  WS02006235WS02006234 CONDUIT    226.37     0  02:43      0.93    2.39    0.68
  WS02006234WS02006232 CONDUIT    226.64     0  02:43      1.02    0.46    0.75
  WS02006232WS02006231 CONDUIT    226.95     0  02:44      0.78    0.48    0.72
  WS02006231WS02006230 CONDUIT    227.46     0  02:44      1.13    3.45    0.58
  WS02006230WS02006229 CONDUIT    238.66     0  02:44      0.71    5.31    1.00
  WS02006228WS02006109 CONDUIT    373.80     0  02:38      0.75    1.63    0.99
  WS02006116WS02004401 CONDUIT    374.30     0  02:42      0.77    0.52    0.71
  WS02006115WS02006116 CONDUIT    375.35     0  02:41      0.81    0.48    0.62
  WS02006113WS02006111 CONDUIT    382.25     0  02:39      2.17    0.46    0.38
  WS02006112WS02006115 CONDUIT    377.29     0  02:40      0.61    0.22    0.75
  WS02006111WS02006112 CONDUIT    375.52     0  02:39      1.29    0.18    0.64
  WS02006110WS02006113 CONDUIT    375.02     0  02:38      0.96    0.34    0.73
  WS02006109WS02006110 CONDUIT    375.01     0  02:38      0.77    0.72    0.93
  WS02004411WS02004412 CONDUIT    370.85     0  02:47      0.78    0.53    0.59
  WS02004401WS02004402 CONDUIT    373.69     0  02:42      0.80    0.45    0.74
  WS02004413WS02003067 CONDUIT    370.48     0  02:48      0.91    0.16    0.51
  WS02004412WS02004413 CONDUIT    370.57     0  02:47      0.66    0.25    0.68
  WS02004410WS02004411 CONDUIT    371.33     0  02:46      0.81    0.51    0.57
  WS02004409WS02004410 CONDUIT    372.12     0  02:45      0.85    0.48    0.55
  WS02004407WS02004409 CONDUIT    373.18     0  02:44      1.32    0.13    0.39
  WS02004406WS02004407 CONDUIT    373.20     0  02:44      0.84    0.17    0.55
  WS02004405WS02004406 CONDUIT    373.23     0  02:44      0.62    0.74    0.85
  WS02004404WS02004405 CONDUIT    373.26     0  02:44      0.88    3.66    0.85
  WS02004403WS02004404 CONDUIT    373.17     0  02:43      0.75    0.27    0.81
  WS02004402WS02004403 CONDUIT    373.35     0  02:43      0.79    0.54    0.77
  WS02004139WS02001211 CONDUIT    380.53     0  03:22      0.69    0.48    0.58
  WS02004138WS02004139 CONDUIT    380.05     0  01:20      2.95    0.08    0.43
  WS02003067WS02003066 CONDUIT    370.49     0  02:48      0.98    0.12    0.37
  WS02001213WS02003059 CONDUIT    388.80     0  03:20      0.68    0.64    0.74
  WS02001212WS02001213 CONDUIT    388.37     0  03:21      1.32    0.60    0.44
  WS02001211WS02001212 CONDUIT    388.12     0  03:21      0.78    0.30    0.63
  WS02003072WS02003073 CONDUIT    772.99     0  02:51      1.61    1.67    0.44
  WS02003069WS02003072 CONDUIT    773.00     0  02:51      1.52    0.37    0.46
  WS02003060WS02003069 CONDUIT    772.70     0  02:50      1.78    0.30    0.41
  WS02003059WS02003060 CONDUIT    389.41     0  03:20      0.95    0.25    0.62
  HS02004901HS02004770 CONDUIT      9.11     0  02:16      0.04    0.03    0.31
  HS02004876HS02004881 CONDUIT     30.75     0  02:20      0.52    0.33    0.09
  HS02004870HS02004876 CONDUIT     24.40     0  02:20      0.36    0.02    0.10
  HS02004842HS02004848 CONDUIT      5.01     0  02:33      0.03    0.00    0.27
  HS02004837HS02004842 CONDUIT      5.17     0  02:33      0.42    0.00    0.29
  HS02004830HS02004837 CONDUIT     22.01     0  02:19      0.43    0.02    0.07
  HS02004824HS02004830 CONDUIT     22.16     0  02:20      0.47    0.03    0.07
  HS02004817HS02004824 CONDUIT     35.16     0  02:23      0.17    0.02    0.39
  HS02004770HS02004777 CONDUIT     46.50     0  02:16      0.21    0.09    0.32
  HS02004799HS02004480 CONDUIT    115.32     0  02:17      0.56    0.15    0.30
  HS02004792HS02004799 CONDUIT    105.38     0  02:17      0.64    0.06    0.23
  HS02004788HS02004792 CONDUIT     61.31     0  02:18      0.80    0.04    0.11
  HS02004785HS02004788 CONDUIT     46.03     0  02:18      0.48    0.35    0.14
  HS02004777HS02004785 CONDUIT     46.01     0  02:17      0.25    0.06    0.26
  HS02004480HS02004478 CONDUIT    136.18     0  02:19      0.92    0.57    0.21
  HS02004479HS02004480 CONDUIT     21.30     0  02:21      0.15    0.02    0.29
  HS02004862HS02004870 CONDUIT     17.76     0  02:21      0.44    0.02    0.06
  HS02004848HS02004852 CONDUIT      7.04     0  02:20      0.29    0.01    0.03
  HS02004856HS02004862 CONDUIT     11.94     0  02:20      0.32    0.01    0.05
  HS02004852HS02004856 CONDUIT      7.01     0  02:21      0.11    0.01    0.09
  HS02004802HS02004478 CONDUIT     48.34     0  02:23      0.29    0.04    0.24
  HS02004478WS02006287 CONDUIT    183.51     0  02:19      1.26    0.05    0.16
  HS02004817HS02004807 CONDUIT     36.17     0  02:25      0.10    0.02    0.50
  HS02004807HS02004802 CONDUIT     48.08     0  02:22      0.24    0.09    0.29
  YS02001759YS02001757 CONDUIT    186.39     0  03:21      0.24    0.13    1.00
  YS02001762YS02001759 CONDUIT    123.64     0  03:21      0.18    0.14    1.00
  YS02001765YS02001762 CONDUIT    125.76     0  03:22      0.23    0.12    1.00
  YS02001770YS02001767 CONDUIT    120.78     0  04:02      0.31    0.48    0.99
  YS02001774YS02001770 CONDUIT     82.29     0  04:12      0.14    0.05    0.97
  YS02001779YS02001774 CONDUIT     80.14     0  04:12      0.11    0.04    0.91
  YS02001649YS02001757 CONDUIT    325.97     0  03:20      0.42    0.20    1.00
  YS02001767YS02001765 CONDUIT    100.70     0  03:22      0.25    0.13    1.00
  YS02006561YS02001783 CONDUIT    293.07     0  03:00      1.73    0.15    0.53
  YS02001783YS02001784 CONDUIT    363.88     0  02:46      1.19    0.50    0.80
  YS02001784YS02001785 CONDUIT    350.96     0  02:46      1.26    0.82    0.87
  YS02001788YS02001790 CONDUIT    351.97     0  02:46      1.81    0.26    0.96
  YS02001790YS02001791 CONDUIT    352.37     0  02:46      2.12    0.38    1.00
  YS02001791YS02001793 CONDUIT    352.41     0  02:46      4.13    0.15    1.00
  YS02001910YS02001907 CONDUIT     91.28     0  03:02      0.50    0.05    0.72
  YS02001786YS02001788 CONDUIT    373.07     0  02:46      1.70    0.72    0.88
  YS02001915YS02001910 CONDUIT     91.19     0  03:01      0.44    0.05    0.51
  YS02001918YS02001915 CONDUIT     30.85     0  03:03      0.44    0.02    0.25
  YS02001923YS02001920 CONDUIT     28.02     0  03:02      0.43    0.01    0.14
  YS02001926YS02001923 CONDUIT     27.98     0  03:02      0.47    0.04    0.13
  YS02001929YS02001926 CONDUIT     28.00     0  03:01      0.50    0.01    0.12
  YS02001920YS02001918 CONDUIT     30.87     0  03:03      0.45    0.03    0.14
  YS02001629YS02163301 CONDUIT    105.12     0  03:27      0.15    0.13    0.96
  YS02001619YS02001622 CONDUIT     99.46     0  03:41      0.63    0.15    0.57
  YS02001622YS02001625 CONDUIT    108.29     0  03:43      0.24    0.06    0.73
  YS02001625YS02001629 CONDUIT    133.24     0  03:42      0.25    0.06    0.71
  YS02163301YS02001633 CONDUIT     76.42     0  03:03      0.10    0.07    0.99
  YS02163601YS02164001 CONDUIT    160.11     0  03:25      0.21    0.14    1.00
  YS02164001YS02001641 CONDUIT    170.36     0  03:37      0.22    0.23    1.00
  YS02001641YS02001644 CONDUIT    153.17     0  03:17      0.20    0.50    1.00
  YS02001647YS02001649 CONDUIT    220.73     0  03:24      0.30    0.12    0.94
  YS02006553YS02006556 CONDUIT    200.57     0  03:03      0.30    0.17    0.80
  YS02006556YS02006558 CONDUIT    200.77     0  03:03      0.29    0.16    0.83
  YSB6556YSB1171       CONDUIT     11.53     0  02:21      0.05    0.01    0.56
  YS02001907YS02006553 CONDUIT    200.29     0  03:02      0.24    0.24    0.91
  YS02006558YS02006561 CONDUIT    293.07     0  03:00      2.25    0.65    0.47
  YS02001633YS02163601 CONDUIT    148.54     0  03:25      0.19    0.16    1.00
  YS02001644YS02001647 CONDUIT    209.08     0  03:27      0.29    0.12    0.94
  YS02001745YS02001748 CONDUIT     67.28     0  03:01      1.38    0.03    0.21
  YS02001748YS02001751 CONDUIT    222.52     0  03:26      1.06    0.11    0.49
  YS02001751YS02001754 CONDUIT     83.41     0  03:05      0.94    0.04    0.72
  YS02001754YS02001757 CONDUIT    198.82     0  03:27      0.33    0.08    0.94
  YS02001882YS02001884 CONDUIT      3.52     0  02:08      0.06    0.00    0.45
  YS02001884YS02001887 CONDUIT     10.09     0  02:08      0.06    0.01    0.54
  YS02001890YS02001895 CONDUIT    110.04     0  02:51      0.28    0.05    0.51
  YS02001895YS02001898 CONDUIT    109.89     0  02:52      0.47    0.19    0.37
  YS02001898YS02001901 CONDUIT    109.76     0  02:52      0.32    0.07    0.45
  YS02001901YS02001904 CONDUIT    109.38     0  02:53      0.28    0.17    0.50
  YS02001904YS02001907 CONDUIT    109.43     0  02:55      0.20    0.04    0.66
  YS02001887YS02001890 CONDUIT    110.36     0  02:49      0.23    0.19    0.59
  YS02001652YS02001649 CONDUIT    218.09     0  03:37      0.31    0.11    0.95
  YS02001655YS02001652 CONDUIT    109.94     0  03:17      1.01    0.05    0.75
  YS02001658YS02001655 CONDUIT    220.53     0  03:31      1.22    0.09    0.48
  YS02001661YS02001658 CONDUIT     78.70     0  02:50      1.42    0.03    0.21
  YS02001664YS02001661 CONDUIT     78.70     0  02:49      1.07    0.02    0.15
  YSB1154YSB6556       CONDUIT     11.39     0  02:18      0.19    0.02    0.45
  YSB1174YSB1171       CONDUIT     10.52     0  02:12      0.05    0.02    0.56
  YSB1171HS02004479    CONDUIT     21.13     0  02:20      0.54    0.01    0.43
  HS02004881HS02006253 CONDUIT     34.42     0  02:19      1.59    0.01    0.09
  YS02001793JiankangQianchi CONDUIT    474.51     0  02:38      2.42    0.04    1.00
  YS02001757CaochengTiaoxuchi CONDUIT    489.87     0  03:03      1.05    0.22    0.73
  WSF200WS02003060     CONDUIT    370.47     0  02:48      1.37    0.08    0.29
  1                    CONDUIT    774.82     0  02:52      3.10    0.27    0.35
  2                    CONDUIT      0.00     0  00:00      0.00    0.00    0.00
  3                    CONDUIT    446.15     0  00:30      9.55    0.71    0.63
  4                    CONDUIT      0.00     0  00:00      0.00    0.00    0.00
  CC-Pump-1            PUMP         0.00     0  00:00              0.00
  CC-Pump-2            PUMP       200.00     0  02:25              1.00
  JK-Pump-1            PUMP       300.00     0  00:30              1.00
  JK-Pump-2            PUMP       300.00     0  00:30              1.00
  XR-Pump-1            PUMP        95.00     0  00:30              1.00
  XR-Pump-2            PUMP        95.00     0  00:00              1.00
  XR-Pump-3            PUMP        95.00     0  00:00              1.00
  XR-Pump-4            PUMP        95.00     0  00:30              1.00
  
  
  ***************************
  Flow Classification Summary
  ***************************
  
  -------------------------------------------------------------------------------------
                      Adjusted    ---------- Fraction of Time in Flow Class ---------- 
                       /Actual         Up    Down  Sub   Sup   Up    Down  Norm  Inlet 
  Conduit               Length    Dry  Dry   Dry   Crit  Crit  Crit  Crit  Ltd   Ctrl  
  -------------------------------------------------------------------------------------
  WS02003066WSF200        1.00   0.05  0.02  0.00  0.00  0.94  0.00  0.00  0.75  0.00
  WS02006287WS02006284    1.00   0.04  0.02  0.00  0.72  0.23  0.00  0.00  0.78  0.00
  WS02006284WS02006280    1.00   0.04  0.00  0.00  0.00  0.00  0.00  0.96  0.00  0.00
  WS02006280WS02006229    1.00   0.04  0.00  0.00  0.00  0.00  0.00  0.96  0.00  0.00
  WS02006229WS02006228    1.00   0.00  0.00  0.00  1.00  0.00  0.00  0.00  0.00  0.00
  WS02006256WS02006235    1.00   0.01  0.00  0.00  0.99  0.00  0.00  0.00  0.00  0.00
  WS02006253WS02006251    1.00   0.01  0.03  0.00  0.96  0.00  0.00  0.00  0.00  0.00
  WS02006252WS02006251    1.00   0.08  0.00  0.00  0.00  0.00  0.92  0.00  0.00  0.00
  WS02006251WS02006249    1.00   0.00  0.00  0.00  1.00  0.00  0.00  0.00  0.28  0.00
  WS02006249WS02006248    1.00   0.00  0.00  0.00  0.92  0.00  0.08  0.00  0.00  0.00
  WS02006248WS02006247    1.00   0.00  0.00  0.00  0.97  0.00  0.00  0.03  0.17  0.00
  WS02006247WS02006245    1.00   0.00  0.00  0.00  0.97  0.00  0.00  0.02  0.00  0.00
  WS02006245WS02006243    1.00   0.01  0.00  0.00  0.94  0.00  0.00  0.05  0.01  0.00
  WS02006243WS02006242    1.00   0.01  0.00  0.00  0.99  0.00  0.00  0.00  0.24  0.00
  WS02006242WS02006240    1.00   0.01  0.00  0.00  0.99  0.00  0.00  0.00  0.00  0.00
  WS02006240WS02006239    1.00   0.01  0.00  0.00  0.95  0.00  0.00  0.04  0.01  0.00
  WS02006239WS02006238    1.00   0.01  0.00  0.00  0.99  0.00  0.00  0.00  0.10  0.00
  WS02006238WS02006235    1.00   0.01  0.00  0.00  0.99  0.00  0.00  0.00  0.00  0.00
  WS02006235WS02006234    1.00   0.01  0.00  0.00  0.95  0.00  0.04  0.00  0.00  0.00
  WS02006234WS02006232    1.00   0.01  0.00  0.00  0.99  0.00  0.00  0.00  0.08  0.00
  WS02006232WS02006231    1.00   0.01  0.00  0.00  0.99  0.00  0.00  0.00  0.00  0.00
  WS02006231WS02006230    1.00   0.01  0.00  0.00  0.14  0.00  0.85  0.00  0.00  0.00
  WS02006230WS02006229    1.00   0.00  0.00  0.00  0.99  0.00  0.00  0.01  0.00  0.00
  WS02006228WS02006109    1.00   0.00  0.00  0.00  1.00  0.00  0.00  0.00  0.00  0.00
  WS02006116WS02004401    1.00   0.03  0.00  0.00  0.97  0.00  0.00  0.00  0.00  0.00
  WS02006115WS02006116    1.00   0.03  0.00  0.00  0.97  0.00  0.00  0.00  0.00  0.00
  WS02006113WS02006111    1.00   0.02  0.00  0.00  0.00  0.98  0.00  0.00  0.14  0.00
  WS02006112WS02006115    1.00   0.02  0.01  0.00  0.97  0.00  0.00  0.00  0.00  0.00
  WS02006111WS02006112    1.00   0.02  0.00  0.00  0.97  0.00  0.00  0.01  0.94  0.00
  WS02006110WS02006113    1.00   0.00  0.02  0.00  0.98  0.00  0.00  0.00  0.00  0.00
  WS02006109WS02006110    1.00   0.00  0.00  0.00  1.00  0.00  0.00  0.00  0.00  0.00
  WS02004411WS02004412    1.00   0.04  0.00  0.00  0.96  0.00  0.00  0.00  0.00  0.00
  WS02004401WS02004402    1.00   0.03  0.00  0.00  0.97  0.00  0.00  0.00  0.00  0.00
  WS02004413WS02003067    1.00   0.04  0.01  0.00  0.00  0.00  0.94  0.00  0.00  0.00
  WS02004412WS02004413    1.00   0.04  0.00  0.00  0.96  0.00  0.00  0.00  0.03  0.00
  WS02004410WS02004411    1.00   0.04  0.00  0.00  0.96  0.00  0.00  0.00  0.03  0.00
  WS02004409WS02004410    1.00   0.04  0.00  0.00  0.96  0.00  0.00  0.00  0.03  0.00
  WS02004407WS02004409    1.00   0.04  0.00  0.00  0.96  0.00  0.00  0.00  0.86  0.00
  WS02004406WS02004407    1.00   0.00  0.04  0.00  0.96  0.00  0.00  0.00  0.00  0.00
  WS02004405WS02004406    1.00   0.00  0.00  0.00  1.00  0.00  0.00  0.00  0.04  0.00
  WS02004404WS02004405    1.00   0.00  0.00  0.00  1.00  0.00  0.00  0.00  0.00  0.00
  WS02004403WS02004404    1.00   0.00  0.03  0.00  0.97  0.00  0.00  0.00  0.01  0.00
  WS02004402WS02004403    1.00   0.03  0.00  0.00  0.97  0.00  0.00  0.00  0.00  0.00
  WS02004139WS02001211    1.00   0.00  0.00  0.00  1.00  0.00  0.00  0.00  0.00  0.00
  WS02004138WS02004139    1.00   0.00  0.00  0.00  1.00  0.00  0.00  0.00  1.00  0.00
  WS02003067WS02003066    1.00   0.06  0.00  0.00  0.94  0.00  0.00  0.00  0.00  0.00
  WS02001213WS02003059    1.00   0.00  0.00  0.00  1.00  0.00  0.00  0.00  0.00  0.00
  WS02001212WS02001213    1.00   0.00  0.00  0.00  0.93  0.00  0.07  0.00  0.00  0.00
  WS02001211WS02001212    1.00   0.00  0.00  0.00  1.00  0.00  0.00  0.00  0.00  0.00
  WS02003072WS02003073    1.00   0.00  0.00  0.00  0.00  0.00  0.00  1.00  0.00  0.00
  WS02003069WS02003072    1.00   0.00  0.00  0.00  1.00  0.00  0.00  0.00  0.15  0.00
  WS02003060WS02003069    1.00   0.00  0.00  0.00  1.00  0.00  0.00  0.00  0.02  0.00
  WS02003059WS02003060    1.00   0.00  0.00  0.00  1.00  0.00  0.00  0.00  0.01  0.00
  HS02004901HS02004770    1.00   0.04  0.00  0.00  0.96  0.00  0.00  0.00  0.02  0.00
  HS02004876HS02004881    1.00   0.00  0.00  0.00  1.00  0.00  0.00  0.00  0.00  0.00
  HS02004870HS02004876    1.00   0.00  0.00  0.00  1.00  0.00  0.00  0.00  0.95  0.00
  HS02004842HS02004848    1.00   0.00  0.04  0.00  0.96  0.00  0.00  0.00  0.69  0.00
  HS02004837HS02004842    1.00   0.00  0.00  0.00  1.00  0.00  0.00  0.00  0.11  0.00
  HS02004830HS02004837    1.00   0.00  0.00  0.00  1.00  0.00  0.00  0.00  0.99  0.00
  HS02004824HS02004830    1.00   0.00  0.00  0.00  1.00  0.00  0.00  0.00  0.00  0.00
  HS02004817HS02004824    1.00   0.00  0.00  0.00  1.00  0.00  0.00  0.00  1.00  0.00
  HS02004770HS02004777    1.00   0.00  0.04  0.00  0.96  0.00  0.00  0.00  0.07  0.00
  HS02004799HS02004480    1.00   0.00  0.01  0.00  0.94  0.00  0.05  0.00  0.00  0.00
  HS02004792HS02004799    1.00   0.00  0.00  0.00  1.00  0.00  0.00  0.00  0.98  0.00
  HS02004788HS02004792    1.00   0.00  0.00  0.00  1.00  0.00  0.00  0.00  0.98  0.00
  HS02004785HS02004788    1.00   0.00  0.00  0.00  1.00  0.00  0.00  0.00  0.00  0.00
  HS02004777HS02004785    1.00   0.00  0.00  0.00  1.00  0.00  0.00  0.00  0.21  0.00
  HS02004480HS02004478    1.00   0.05  0.00  0.00  0.75  0.00  0.00  0.20  0.00  0.00
  HS02004479HS02004480    1.00   0.01  0.00  0.00  0.99  0.00  0.00  0.00  0.16  0.00
  HS02004862HS02004870    1.00   0.00  0.00  0.00  1.00  0.00  0.00  0.00  0.06  0.00
  HS02004848HS02004852    1.00   0.04  0.00  0.00  0.96  0.00  0.00  0.00  0.70  0.00
  HS02004856HS02004862    1.00   0.00  0.07  0.00  0.93  0.00  0.00  0.00  0.74  0.00
  HS02004852HS02004856    1.00   0.04  0.01  0.00  0.95  0.00  0.00  0.00  0.83  0.00
  HS02004802HS02004478    1.00   0.04  0.01  0.00  0.95  0.00  0.00  0.00  0.01  0.00
  HS02004478WS02006287    1.00   0.05  0.00  0.00  0.90  0.05  0.00  0.00  0.80  0.00
  HS02004817HS02004807    1.00   0.00  0.04  0.00  0.96  0.00  0.00  0.00  0.00  0.00
  HS02004807HS02004802    1.00   0.04  0.00  0.00  0.95  0.00  0.00  0.00  0.01  0.00
  YS02001759YS02001757    1.00   0.00  0.00  0.00  1.00  0.00  0.00  0.00  0.17  0.00
  YS02001762YS02001759    1.00   0.00  0.00  0.00  1.00  0.00  0.00  0.00  0.04  0.00
  YS02001765YS02001762    1.00   0.00  0.00  0.00  1.00  0.00  0.00  0.00  0.22  0.00
  YS02001770YS02001767    1.00   0.00  0.00  0.00  1.00  0.00  0.00  0.00  0.00  0.00
  YS02001774YS02001770    1.00   0.00  0.05  0.00  0.95  0.00  0.00  0.00  0.07  0.00
  YS02001779YS02001774    1.00   0.00  0.00  0.00  1.00  0.00  0.00  0.00  0.27  0.00
  YS02001649YS02001757    1.00   0.00  0.00  0.00  1.00  0.00  0.00  0.00  0.19  0.00
  YS02001767YS02001765    1.00   0.00  0.00  0.00  1.00  0.00  0.00  0.00  0.01  0.00
  YS02006561YS02001783    1.00   0.07  0.00  0.00  0.86  0.08  0.00  0.00  0.73  0.00
  YS02001783YS02001784    1.00   0.00  0.07  0.00  0.93  0.00  0.00  0.00  0.00  0.00
  YS02001784YS02001785    1.00   0.00  0.00  0.00  1.00  0.00  0.00  0.00  0.25  0.00
  YS02001788YS02001790    1.00   0.00  0.00  0.00  0.94  0.06  0.00  0.00  0.28  0.00
  YS02001790YS02001791    1.00   0.00  0.00  0.00  0.87  0.13  0.00  0.00  0.05  0.00
  YS02001791YS02001793    1.00   0.00  0.00  0.00  0.88  0.12  0.00  0.00  0.01  0.00
  YS02001910YS02001907    1.00   0.00  0.00  0.00  0.99  0.00  0.00  0.00  0.13  0.00
  YS02001786YS02001788    1.00   0.00  0.00  0.00  0.93  0.07  0.00  0.00  0.00  0.00
  YS02001915YS02001910    1.00   0.00  0.00  0.00  1.00  0.00  0.00  0.00  0.24  0.00
  YS02001918YS02001915    1.00   0.00  0.00  0.00  1.00  0.00  0.00  0.00  0.81  0.00
  YS02001923YS02001920    1.00   0.00  0.00  0.00  1.00  0.00  0.00  0.00  1.00  0.00
  YS02001926YS02001923    1.00   0.00  0.03  0.00  0.00  0.00  0.97  0.00  0.00  0.00
  YS02001929YS02001926    1.00   0.00  0.04  0.00  0.96  0.00  0.00  0.00  0.87  0.00
  YS02001920YS02001918    1.00   0.00  0.00  0.00  1.00  0.00  0.00  0.00  0.00  0.00
  YS02001629YS02163301    1.00   0.06  0.00  0.00  0.94  0.00  0.00  0.00  0.00  0.00
  YS02001619YS02001622    1.00   0.04  0.00  0.00  0.96  0.00  0.00  0.00  0.00  0.00
  YS02001622YS02001625    1.00   0.04  0.00  0.00  0.96  0.00  0.00  0.00  0.13  0.00
  YS02001625YS02001629    1.00   0.04  0.03  0.00  0.92  0.00  0.01  0.00  0.00  0.00
  YS02163301YS02001633    1.00   0.00  0.06  0.00  0.94  0.00  0.00  0.00  0.00  0.00
  YS02163601YS02164001    1.00   0.00  0.03  0.00  0.97  0.00  0.00  0.00  0.00  0.00
  YS02164001YS02001641    1.00   0.00  0.03  0.00  0.97  0.00  0.00  0.00  0.07  0.00
  YS02001641YS02001644    1.00   0.00  0.00  0.00  1.00  0.00  0.00  0.00  0.00  0.00
  YS02001647YS02001649    1.00   0.00  0.07  0.00  0.93  0.00  0.00  0.00  0.01  0.00
  YS02006553YS02006556    1.00   0.00  0.00  0.00  1.00  0.00  0.00  0.00  0.03  0.00
  YS02006556YS02006558    1.00   0.00  0.00  0.00  1.00  0.00  0.00  0.00  0.00  0.00
  YSB6556YSB1171          1.00   0.01  0.03  0.00  0.96  0.00  0.00  0.00  0.00  0.00
  YS02001907YS02006553    1.00   0.00  0.00  0.00  1.00  0.00  0.00  0.00  0.00  0.00
  YS02006558YS02006561    1.00   0.07  0.00  0.00  0.00  0.93  0.00  0.00  0.72  0.00
  YS02001633YS02163601    1.00   0.00  0.00  0.00  1.00  0.00  0.00  0.00  0.20  0.00
  YS02001644YS02001647    1.00   0.00  0.07  0.00  0.93  0.00  0.00  0.00  0.00  0.00
  YS02001745YS02001748    1.00   0.00  0.00  0.00  0.85  0.03  0.00  0.13  0.66  0.00
  YS02001748YS02001751    1.00   0.00  0.00  0.00  0.98  0.02  0.00  0.00  0.25  0.00
  YS02001751YS02001754    1.00   0.00  0.00  0.00  0.93  0.00  0.00  0.07  0.02  0.00
  YS02001754YS02001757    1.00   0.00  0.00  0.00  1.00  0.00  0.00  0.00  0.26  0.00
  YS02001882YS02001884    1.00   0.06  0.00  0.00  0.94  0.00  0.00  0.00  0.00  0.00
  YS02001884YS02001887    1.00   0.02  0.01  0.00  0.96  0.00  0.00  0.00  0.00  0.00
  YS02001890YS02001895    1.00   0.00  0.06  0.00  0.94  0.00  0.00  0.00  0.00  0.00
  YS02001895YS02001898    1.00   0.06  0.00  0.00  0.93  0.00  0.01  0.00  0.00  0.00
  YS02001898YS02001901    1.00   0.06  0.00  0.00  0.94  0.00  0.00  0.00  0.02  0.00
  YS02001901YS02001904    1.00   0.06  0.00  0.00  0.94  0.00  0.00  0.00  0.00  0.00
  YS02001904YS02001907    1.00   0.00  0.06  0.00  0.94  0.00  0.00  0.00  0.00  0.00
  YS02001887YS02001890    1.00   0.00  0.00  0.00  0.99  0.00  0.01  0.00  0.00  0.00
  YS02001652YS02001649    1.00   0.00  0.00  0.00  1.00  0.00  0.00  0.00  0.26  0.00
  YS02001655YS02001652    1.00   0.00  0.00  0.00  0.93  0.00  0.00  0.07  0.02  0.00
  YS02001658YS02001655    1.00   0.00  0.05  0.00  0.92  0.02  0.00  0.00  0.13  0.00
  YS02001661YS02001658    1.00   0.05  0.00  0.00  0.85  0.10  0.00  0.00  0.73  0.00
  YS02001664YS02001661    1.00   0.04  0.00  0.00  0.80  0.16  0.00  0.00  0.86  0.00
  YSB1154YSB6556          1.00   0.04  0.00  0.00  0.96  0.00  0.00  0.00  0.02  0.00
  YSB1174YSB1171          1.00   0.01  0.02  0.00  0.96  0.00  0.00  0.00  0.00  0.00
  YSB1171HS02004479       1.00   0.01  0.00  0.00  0.98  0.00  0.00  0.01  0.13  0.00
  HS02004881HS02006253    1.00   0.01  0.00  0.00  0.91  0.00  0.00  0.08  0.69  0.00
  YS02001793JiankangQianchi    1.00   0.00  0.00  0.00  0.97  0.03  0.00  0.00  0.21  0.00
  YS02001757CaochengTiaoxuchi    1.00   0.00  0.08  0.00  0.92  0.00  0.00  0.00  0.00  0.00
  WSF200WS02003060        1.00   0.00  0.05  0.00  0.95  0.00  0.00  0.00  0.75  0.00
  1                       1.00   0.00  0.00  0.00  0.00  1.00  0.00  0.00  0.12  0.00
  2                       1.00   1.00  0.00  0.00  0.00  0.00  0.00  0.00  0.00  0.00
  3                       1.00   0.98  0.00  0.00  0.00  0.02  0.00  0.00  0.00  0.00
  4                       1.00   1.00  0.00  0.00  0.00  0.00  0.00  0.00  0.00  0.00
  
  
  *************************
  Conduit Surcharge Summary
  *************************
  
  ----------------------------------------------------------------------------
                                                           Hours        Hours 
                         --------- Hours Full --------   Above Full   Capacity
  Conduit                Both Ends  Upstream  Dnstream   Normal Flow   Limited
  ----------------------------------------------------------------------------
  WS02006229WS02006228        0.01      0.01      0.01      0.66         0.01
  WS02006256WS02006235        5.47      5.47      6.62      0.14         0.01
  WS02006249WS02006248        0.01      0.01      0.01      5.42         0.01
  WS02006247WS02006245        0.01      0.01      0.01      5.43         0.01
  WS02006235WS02006234        0.01      0.01      0.01      5.48         0.01
  WS02006231WS02006230        0.01      0.01      0.01      5.48         0.01
  WS02006230WS02006229        0.25      0.41      0.25      5.60         0.25
  WS02006228WS02006109        0.01      0.01      0.01      2.11         0.01
  WS02006111WS02006112        0.01      0.01      0.78      0.01         0.01
  WS02004404WS02004405        0.01      0.01      0.01      5.58         0.01
  WS02003072WS02003073        0.01      0.01      0.01      5.50         0.01
  YS02001759YS02001757        4.14      4.14      5.23      0.01         0.01
  YS02001762YS02001759        3.05      3.05      4.14      0.01         0.01
  YS02001765YS02001762        1.47      1.47      3.05      0.01         0.01
  YS02001770YS02001767        0.01      0.01      0.04      0.01         0.01
  YS02001774YS02001770        0.01      0.01      2.28      0.01         0.01
  YS02001779YS02001774        0.01      0.01      2.28      0.01         0.01
  YS02001649YS02001757        3.53      3.53      5.23      0.01         0.01
  YS02001767YS02001765        0.04      0.04      1.47      0.01         0.01
  YS02001788YS02001790        0.01      0.01      5.12      0.01         0.01
  YS02001790YS02001791        5.12      5.12      5.14      0.01         0.01
  YS02001791YS02001793        5.14      5.14      5.20      0.01         0.01
  YS02163301YS02001633        0.01      0.01      1.45      0.01         0.01
  YS02163601YS02164001        1.17      1.17      3.32      0.01         0.01
  YS02164001YS02001641        1.17      1.17      1.91      0.01         0.01
  YS02001641YS02001644        1.89      1.91      2.08      0.01         0.15
  YS02001647YS02001649        0.01      0.01      3.53      0.01         0.01
  YS02001633YS02163601        0.22      0.22      3.32      0.01         0.01
  YS02001644YS02001647        0.01      0.01      2.08      0.01         0.01
  YS02001754YS02001757        0.01      0.01      5.23      0.01         0.01
  YS02001652YS02001649        0.01      0.01      3.53      0.01         0.01
  YS02001793JiankangQianchi        5.18      5.18      5.95      0.01         0.01
  YS02001757CaochengTiaoxuchi        0.01      0.01      5.23      0.01         0.01
  
  
  ***************
  Pumping Summary
  ***************
  
  ---------------------------------------------------------------------------------------------------------
                                                  Min       Avg       Max     Total     Power    % Time Off
                        Percent   Number of      Flow      Flow      Flow    Volume     Usage    Pump Curve
  Pump                 Utilized   Start-Ups       LPS       LPS       LPS  10^6 ltr     Kw-hr    Low   High
  ---------------------------------------------------------------------------------------------------------
  CC-Pump-1                0.00           0      0.00      0.00      0.00     0.000      0.00    0.0    0.0
  CC-Pump-2               70.31           1      0.00    198.98    200.00     3.929     13.40    0.0   27.0
  JK-Pump-1               12.76           1      0.00    100.95    300.00     0.094      1.48    0.0    0.0
  JK-Pump-2               12.76           1      0.00    100.95    300.00     0.094      1.48    0.0    0.0
  XR-Pump-1               95.73           1      0.00     94.29     95.00     2.536     61.25    0.0    0.0
  XR-Pump-2               91.49           2      0.00     93.49     95.00     2.394     58.77    0.0    0.0
  XR-Pump-3              100.00           1      0.00     95.00     95.00     2.679     62.93    0.0    0.0
  XR-Pump-4               95.73           1      0.00     94.29     95.00     2.536     61.25    0.0    0.0
  

  Analysis begun on:  Thu Jan  6 00:03:45 2022
  Analysis ended on:  Thu Jan  6 00:03:47 2022
  Total elapsed time: 00:00:02