
  EPA STORM WATER MANAGEMENT MODEL - VERSION 5.1 (Build 5.3.0.dev0)
  --------------------------------------------------------------

  WARNING 04: minimum elevation drop used for Conduit WS02004404WS02004405
  WARNING 03: negative offset ignored for Link YS02001904YS02001907
  
  *********************************************************
  NOTE: The summary statistics displayed in this report are
  based on results found at every computational time step,  
  not just on results from each reporting time step.
  *********************************************************
  
  ****************
  Analysis Options
  ****************
  Flow Units ............... LPS
  Process Models:
    Rainfall/Runoff ........ YES
    RDII ................... NO
    Snowmelt ............... NO
    Groundwater ............ NO
    Flow Routing ........... YES
    Ponding Allowed ........ NO
    Water Quality .......... NO
  Infiltration Method ...... HORTON
  Flow Routing Method ...... DYNWAVE
  Surcharge Method ......... EXTRAN
  Starting Date ............ 08/28/2015 08:00:00
  Ending Date .............. 08/28/2015 15:50:00
  Antecedent Dry Days ...... 8.0
  Report Time Step ......... 00:01:00
  Wet Time Step ............ 00:01:00
  Dry Time Step ............ 00:01:00
  Routing Time Step ........ 5.00 sec
  Variable Time Step ....... YES
  Maximum Trials ........... 8
  Number of Threads ........ 4
  Head Tolerance ........... 0.001500 m
  
  
  **************************        Volume         Depth
  Runoff Quantity Continuity     hectare-m            mm
  **************************     ---------       -------
  Total Precipitation ......         2.663         5.830
  Evaporation Loss .........         0.000         0.000
  Infiltration Loss ........         0.668         1.463
  Surface Runoff ...........         1.113         2.436
  Final Storage ............         0.882         1.932
  Continuity Error (%) .....        -0.018
  
  
  **************************        Volume        Volume
  Flow Routing Continuity        hectare-m      10^6 ltr
  **************************     ---------     ---------
  Dry Weather Inflow .......         0.616         6.165
  Wet Weather Inflow .......         1.112        11.119
  Groundwater Inflow .......         0.000         0.000
  RDII Inflow ..............         0.000         0.000
  External Inflow ..........         0.102         1.024
  External Outflow .........         1.627        16.273
  Flooding Loss ............         0.095         0.945
  Evaporation Loss .........         0.000         0.000
  Exfiltration Loss ........         0.000         0.000
  Initial Stored Volume ....         0.076         0.761
  Final Stored Volume ......         0.326         3.264
  Continuity Error (%) .....        -7.415
  
  
  *************************
  Highest Continuity Errors
  *************************
  Node HS02004842 (28.71%)
  Node YS02001884 (23.13%)
  Node YS02001774 (14.46%)
  Node YSB1171 (7.07%)
  Node HS02004901 (5.60%)
  
  
  ***************************
  Time-Step Critical Elements
  ***************************
  Link WS02006252WS02006251 (91.65%)
  Link WS02006280WS02006229 (2.40%)
  Link 3 (1.99%)
  
  
  ********************************
  Highest Flow Instability Indexes
  ********************************
  Link WS02006113WS02006111 (49)
  Link WS02006111WS02006112 (27)
  Link YS02006558YS02006561 (6)
  Link YS02001644YS02001647 (3)
  Link YS02001765YS02001762 (3)
  
  
  *************************
  Routing Time Step Summary
  *************************
  Minimum Time Step           :     0.34 sec
  Average Time Step           :     0.89 sec
  Maximum Time Step           :     5.00 sec
  Percent in Steady State     :    -0.00
  Average Iterations per Step :     2.29
  Percent Not Converging      :     3.54
  
  
  ***************************
  Subcatchment Runoff Summary
  ***************************
  
  ------------------------------------------------------------------------------------------------------------------------------
                            Total      Total      Total      Total     Imperv       Perv      Total       Total     Peak  Runoff
                           Precip      Runon       Evap      Infil     Runoff     Runoff     Runoff      Runoff   Runoff   Coeff
  Subcatchment                 mm         mm         mm         mm         mm         mm         mm    10^6 ltr      LPS
  ------------------------------------------------------------------------------------------------------------------------------
  sub0                       5.83       0.00       0.00       0.41       4.16       0.00       4.16        0.00     1.37   0.713
  sub1                       5.83       0.00       0.00       0.64       3.93       0.00       3.93        0.03     7.19   0.675
  sub2                       5.83       0.00       0.00       2.16       2.77       0.00       2.77        0.03     6.37   0.475
  sub3                       5.83       0.00       0.00       2.16       2.73       0.00       2.73        0.06    13.12   0.469
  sub4                       5.83       0.00       0.00       0.64       3.80       0.00       3.80        0.08    14.74   0.651
  sub5                       5.83       0.00       0.00       0.41       4.11       0.00       4.11        0.05    12.79   0.705
  sub7                       5.83       0.00       0.00       0.52       4.05       0.00       4.05        0.01     4.51   0.695
  sub8                       5.83       0.00       0.00       0.52       4.04       0.00       4.04        0.03     7.96   0.693
  sub9                       5.83       0.00       0.00       0.52       4.04       0.00       4.04        0.02     5.90   0.693
  sub10                      5.83       0.00       0.00       0.47       4.07       0.00       4.07        0.04    12.76   0.699
  sub11                      5.83       0.00       0.00       0.47       4.09       0.00       4.09        0.05    14.97   0.701
  sub12                      5.83       0.00       0.00       0.76       3.88       0.00       3.88        0.03    12.68   0.666
  sub14                      5.83       0.00       0.00       0.52       4.04       0.00       4.04        0.04    11.53   0.693
  sub15                      5.83       0.00       0.00       1.75       3.10       0.00       3.10        0.05    15.64   0.532
  sub16                      5.83       0.00       0.00       1.92       2.99       0.00       2.99        0.03    11.14   0.512
  sub17                      5.83       0.00       0.00       1.87       3.03       0.00       3.03        0.03     9.00   0.520
  sub22                      5.83       0.00       0.00       2.51       2.53       0.00       2.53        0.16    51.19   0.435
  sub23                      5.83       0.00       0.00       2.16       2.80       0.00       2.80        0.13    43.62   0.481
  sub60                      5.83       0.00       0.00       0.70       2.71       0.00       2.71        0.82    76.21   0.465
  sub61                      5.83       0.00       0.00       0.99       2.90       0.00       2.90        0.90    95.28   0.498
  sub62                      5.83       0.00       0.00       0.47       3.11       0.00       3.11        0.96    97.52   0.534
  sub63                      5.83       0.00       0.00       1.69       2.59       0.00       2.59        0.78    88.77   0.444
  sub64                      5.83       0.00       0.00       0.87       2.59       0.00       2.59        0.79    72.36   0.444
  sub65                      5.83       0.00       0.00       0.76       2.62       0.00       2.62        0.81    73.39   0.450
  sub66                      5.83       0.00       0.00       1.69       2.26       0.00       2.26        0.69    66.37   0.388
  sub67                      5.83       0.00       0.00       0.47       3.43       0.00       3.43        1.06   124.64   0.588
  sub68                      5.83       0.00       0.00       0.82       3.09       0.00       3.09        0.95   105.22   0.530
  sub69                      5.83       0.00       0.00       0.87       3.34       0.00       3.34        0.78   104.02   0.573
  sub70                      5.83       3.41       0.00       3.14       4.09       0.00       4.09        0.94    84.08   0.442
  sub71                      5.83       0.00       0.00       0.47       2.97       0.00       2.97        0.70    68.20   0.510
  sub72                      5.83       0.00       0.00       0.41       2.09       0.00       2.09        0.43    31.96   0.358
  sub73                      5.83       3.98       0.00       3.33       4.15       0.00       4.15        0.97    72.10   0.423
  sub74                      5.83       0.00       0.00       4.37       1.01       0.00       1.01        0.40    57.95   0.173
  
  
  ******************
  Node Depth Summary
  ******************
  
  ---------------------------------------------------------------------------------
                                 Average  Maximum  Maximum  Time of Max    Reported
                                   Depth    Depth      HGL   Occurrence   Max Depth
  Node                 Type       Meters   Meters   Meters  days hr:min      Meters
  ---------------------------------------------------------------------------------
  WS02001211           JUNCTION     0.72     0.78     5.62     0  02:50        0.78
  WS02001212           JUNCTION     0.43     0.49     5.55     0  02:49        0.49
  WS02001213           JUNCTION     0.66     0.73     5.49     0  02:49        0.73
  WS02003069           JUNCTION     0.45     0.53     5.11     0  02:48        0.53
  WS02003072           JUNCTION     0.52     0.59     4.96     0  02:48        0.59
  WS02003073           JUNCTION     0.31     0.36     4.43     0  02:49        0.36
  WS02003060           JUNCTION     0.40     0.47     5.40     0  02:47        0.47
  WS02003066           JUNCTION     0.21     0.27     5.82     0  03:10        0.27
  WS02003059           JUNCTION     0.71     0.78     5.46     0  02:48        0.78
  WS02003067           JUNCTION     0.53     0.65     5.97     0  03:09        0.65
  WS02004401           JUNCTION     0.61     0.76     6.76     0  03:06        0.76
  WS02004402           JUNCTION     0.65     0.79     6.75     0  03:06        0.79
  WS02004403           JUNCTION     0.67     0.81     6.74     0  03:06        0.81
  WS02004404           JUNCTION     0.75     0.89     6.74     0  03:06        0.89
  WS02004406           JUNCTION     0.76     0.89     6.72     0  03:06        0.89
  WS02004409           JUNCTION     0.43     0.58     6.35     0  03:08        0.58
  WS02004410           JUNCTION     0.46     0.60     6.32     0  03:09        0.60
  WS02004411           JUNCTION     0.47     0.61     6.29     0  03:09        0.61
  WS02004412           JUNCTION     0.49     0.63     6.27     0  03:09        0.63
  WS02004413           JUNCTION     0.65     0.79     6.26     0  03:09        0.79
  WS02004405           JUNCTION     0.74     0.88     6.73     0  03:06        0.88
  WS02006109           JUNCTION     0.69     0.84     7.46     0  03:02        0.84
  WS02006110           JUNCTION     0.69     0.83     7.41     0  03:02        0.83
  WS02006111           JUNCTION     0.20     0.25     6.96     0  03:03        0.25
  WS02006112           JUNCTION     0.77     0.94     6.82     0  03:05        0.94
  WS02006113           JUNCTION     0.30     0.40     7.29     0  03:03        0.40
  WS02006115           JUNCTION     0.50     0.65     6.79     0  03:05        0.65
  WS02006116           JUNCTION     0.58     0.73     6.77     0  03:06        0.73
  WS02006230           JUNCTION     0.62     0.84     7.58     0  03:03        0.84
  WS02006231           JUNCTION     0.41     0.54     7.67     0  03:04        0.54
  WS02006232           JUNCTION     0.54     0.68     7.72     0  03:05        0.68
  WS02006234           JUNCTION     0.44     0.60     7.75     0  03:05        0.60
  WS02006235           JUNCTION     0.47     0.63     7.79     0  03:06        0.63
  WS02006238           JUNCTION     0.50     0.65     7.80     0  03:06        0.65
  WS02006240           JUNCTION     0.41     0.54     7.83     0  03:06        0.54
  WS02006242           JUNCTION     0.48     0.60     7.86     0  03:06        0.60
  WS02006243           JUNCTION     0.36     0.47     7.89     0  03:06        0.47
  WS02006245           JUNCTION     0.36     0.44     7.92     0  03:06        0.44
  WS02006247           JUNCTION     0.39     0.46     7.96     0  03:06        0.46
  WS02006248           JUNCTION     0.34     0.40     7.98     0  03:05        0.40
  WS02006249           JUNCTION     0.38     0.44     8.03     0  02:33        0.44
  WS02006239           JUNCTION     0.46     0.60     7.81     0  03:06        0.60
  WS02006251           JUNCTION     0.37     0.43     8.10     0  02:29        0.43
  WS02006252           JUNCTION     0.32     0.35     8.59     0  02:23        0.35
  WS02006253           JUNCTION     0.39     0.46     8.10     0  02:30        0.46
  WS02006256           JUNCTION     0.80     1.19     8.12     0  00:30        1.19
  WS02004138           JUNCTION     0.17     0.19     7.44     0  01:20        0.19
  WS02004407           JUNCTION     0.20     0.26     6.57     0  03:07        0.26
  WS02006228           JUNCTION     0.67     0.85     7.50     0  03:02        0.85
  WS02006229           JUNCTION     0.64     0.84     7.53     0  03:02        0.84
  WS02006280           JUNCTION     0.05     0.14     8.41     0  02:19        0.14
  WS02006284           JUNCTION     0.35     0.48     8.88     0  02:19        0.48
  WS02006287           JUNCTION     0.08     0.21     9.16     0  02:19        0.21
  WSF200               JUNCTION     0.19     0.27     5.50     0  03:10        0.27
  HS02004901           JUNCTION     0.11     0.23    10.05     0  02:16        0.23
  HS02004881           JUNCTION     0.01     0.02     9.05     0  02:18        0.02
  HS02004876           JUNCTION     0.03     0.10     9.13     0  02:17        0.10
  HS02004870           JUNCTION     0.01     0.04     9.33     0  02:19        0.04
  HS02004862           JUNCTION     0.01     0.05     9.43     0  02:20        0.05
  HS02004856           JUNCTION     0.07     0.10     9.53     0  02:19        0.10
  HS02004852           JUNCTION     0.01     0.03     9.54     0  02:20        0.03
  HS02004848           JUNCTION     0.01     0.03     9.63     0  02:19        0.03
  HS02004842           JUNCTION     0.33     0.36     9.63     0  02:18        0.36
  HS02004837           JUNCTION     0.03     0.05     9.63     0  02:18        0.05
  HS02004830           JUNCTION     0.04     0.06     9.53     0  02:19        0.06
  HS02004824           JUNCTION     0.02     0.04     9.44     0  02:22        0.04
  HS02004817           JUNCTION     0.42     0.52     9.37     0  02:19        0.52
  HS02004807           JUNCTION     0.11     0.20     9.37     0  02:19        0.20
  HS02004802           JUNCTION     0.15     0.23     9.36     0  02:19        0.23
  HS02004799           JUNCTION     0.10     0.25     9.46     0  02:17        0.25
  HS02004792           JUNCTION     0.02     0.10     9.62     0  02:16        0.10
  HS02004788           JUNCTION     0.02     0.07     9.97     0  02:17        0.07
  HS02004785           JUNCTION     0.03     0.13    10.03     0  02:17        0.13
  HS02004777           JUNCTION     0.13     0.25    10.05     0  02:16        0.25
  HS02004770           JUNCTION     0.10     0.22    10.05     0  02:16        0.22
  HS02004480           JUNCTION     0.06     0.20     9.44     0  02:17        0.20
  HS02004479           JUNCTION     0.10     0.23     9.44     0  02:17        0.23
  HS02004478           JUNCTION     0.05     0.12     9.35     0  02:18        0.12
  YS02001745           JUNCTION     0.08     0.12     7.63     0  03:01        0.12
  YS02001748           JUNCTION     0.41     0.54     7.62     0  04:51        0.54
  YS02001751           JUNCTION     0.59     0.74     7.62     0  05:16        0.74
  YS02001754           JUNCTION     0.84     1.01     7.62     0  04:39        1.01
  YS02001762           JUNCTION     1.03     1.26     7.66     0  05:23        1.23
  YS02001765           JUNCTION     0.99     1.23     7.68     0  05:23        1.18
  YS02001767           JUNCTION     0.95     1.20     7.69     0  05:23        1.15
  YS02001770           JUNCTION     0.95     1.19     7.69     0  05:23        1.15
  YS02001774           JUNCTION     1.01     1.24     7.67     0  05:18        1.22
  YS02001779           JUNCTION     0.76     0.96     7.65     0  05:18        0.96
  YS02001882           JUNCTION     0.28     0.45     7.17     0  02:51        0.45
  YS02001884           JUNCTION     0.37     0.55     7.17     0  02:50        0.55
  YS02001759           JUNCTION     1.07     1.28     7.64     0  05:16        1.26
  YS02001887           JUNCTION     0.45     0.63     7.17     0  02:51        0.63
  YS02001890           JUNCTION     0.48     0.66     7.17     0  02:51        0.66
  YS02001898           JUNCTION     0.25     0.42     7.15     0  02:55        0.42
  YS02001901           JUNCTION     0.37     0.54     7.15     0  02:56        0.54
  YS02001904           JUNCTION     0.35     0.52     7.15     0  02:56        0.52
  YS02001907           JUNCTION     0.68     0.86     7.15     0  02:54        0.86
  YS02001910           JUNCTION     0.47     0.64     7.15     0  02:54        0.64
  YS02001915           JUNCTION     0.27     0.43     7.15     0  02:54        0.43
  YS02001918           JUNCTION     0.08     0.10     7.16     0  03:03        0.10
  YS02001619           JUNCTION     0.55     0.69     7.62     0  05:35        0.69
  YS02001629           JUNCTION     0.90     1.08     7.63     0  05:34        1.08
  YS02001641           JUNCTION     1.00     1.22     7.66     0  05:15        1.21
  YS02001644           JUNCTION     1.01     1.21     7.64     0  04:53        1.21
  YS02001652           JUNCTION     0.85     1.11     7.71     0  04:41        1.04
  YS02001655           JUNCTION     0.61     0.79     7.64     0  05:27        0.79
  YS02001920           JUNCTION     0.17     0.20     7.21     0  03:02        0.20
  YS02001923           JUNCTION     0.06     0.08     7.34     0  03:02        0.08
  YS02001926           JUNCTION     0.14     0.17     7.62     0  03:01        0.17
  YS02001929           JUNCTION     0.06     0.09     7.78     0  03:01        0.09
  YS02001658           JUNCTION     0.35     0.48     7.62     0  04:53        0.48
  YS02001661           JUNCTION     0.16     0.24     7.64     0  05:28        0.24
  YS02001664           JUNCTION     0.07     0.11     8.04     0  02:48        0.11
  YS02001622           JUNCTION     0.57     0.72     7.62     0  05:26        0.71
  YS02001633           JUNCTION     0.99     1.21     7.66     0  05:15        1.18
  YS02001649           JUNCTION     1.04     1.26     7.65     0  04:41        1.24
  YS02001757           JUNCTION     1.17     1.36     7.62     0  05:22        1.36
  YS02001895           JUNCTION     0.25     0.41     7.16     0  02:51        0.41
  YS02001625           JUNCTION     0.85     1.03     7.64     0  05:27        1.02
  YS02163301           JUNCTION     0.93     1.13     7.65     0  03:48        1.11
  YS02163601           JUNCTION     1.04     1.27     7.67     0  05:15        1.24
  YS02164001           JUNCTION     0.98     1.21     7.67     0  05:15        1.19
  YS02001647           JUNCTION     0.84     1.04     7.65     0  04:53        1.02
  YSB1154              JUNCTION     0.24     0.38     9.44     0  02:17        0.38
  YSB6556              JUNCTION     0.13     0.27     9.44     0  02:17        0.27
  YSB1174              JUNCTION     0.19     0.33     9.44     0  02:17        0.33
  YSB1171              JUNCTION     0.39     0.53     9.44     0  02:17        0.53
  YS02006553           JUNCTION     0.68     0.87     7.15     0  02:54        0.87
  YS02006561           JUNCTION     0.14     0.22     6.88     0  02:53        0.22
  YS02006556           JUNCTION     0.66     0.84     7.15     0  02:53        0.84
  YS02006558           JUNCTION     0.70     0.88     7.15     0  02:55        0.88
  YS02001783           JUNCTION     0.37     0.65     6.79     0  02:41        0.63
  YS02001784           JUNCTION     0.43     0.72     6.79     0  02:42        0.69
  YS02001786           JUNCTION     0.43     0.72     6.75     0  02:42        0.72
  YS02001788           JUNCTION     0.43     0.75     6.73     0  02:41        0.74
  YS02001790           JUNCTION     0.64     1.96     7.60     0  02:39        1.03
  YS02001791           JUNCTION     0.73     2.51     7.98     0  02:38        1.17
  YS02001793           JUNCTION     1.15     2.06     6.89     0  02:38        1.78
  WS02004139           JUNCTION     0.67     0.73     5.64     0  02:50        0.73
  WSC                  OUTFALL      0.31     0.36     1.03     0  02:49        0.36
  3                    OUTFALL      0.03     0.19     6.19     0  00:30        0.19
  4                    OUTFALL      0.00     0.00     7.00     0  00:00        0.00
  5                    OUTFALL      0.00     0.00     5.00     0  00:00        0.00
  JK-storage           STORAGE      4.52     5.80     6.60     0  02:40        5.80
  CC-storage           STORAGE      0.42     0.60     7.60     0  05:21        0.60
  XR-storage           STORAGE      1.54     5.10     3.10     0  00:21        5.10
  
  
  *******************
  Node Inflow Summary
  *******************
  
  -------------------------------------------------------------------------------------------------
                                  Maximum  Maximum                  Lateral       Total        Flow
                                  Lateral    Total  Time of Max      Inflow      Inflow     Balance
                                   Inflow   Inflow   Occurrence      Volume      Volume       Error
  Node                 Type           LPS      LPS  days hr:min    10^6 ltr    10^6 ltr     Percent
  -------------------------------------------------------------------------------------------------
  WS02001211           JUNCTION      7.35   388.17     0  04:53       0.207        9.17       0.461
  WS02001212           JUNCTION      0.00   388.75     0  04:53           0        9.13       0.258
  WS02001213           JUNCTION      0.00   389.34     0  04:53           0        9.11       0.277
  WS02003069           JUNCTION      0.32   795.03     0  02:47     0.00902        15.1       0.207
  WS02003072           JUNCTION      0.00   795.00     0  02:48           0        15.1       0.251
  WS02003073           JUNCTION      1.82   796.83     0  02:48      0.0514        15.1       0.284
  WS02003060           JUNCTION     16.53   794.72     0  02:47       0.466        15.1       0.195
  WS02003066           JUNCTION      0.00   418.91     0  03:10           0        5.62       0.067
  WS02003059           JUNCTION      0.00   390.35     0  04:52           0        9.09       0.461
  WS02003067           JUNCTION      0.00   418.90     0  03:10           0        5.63       0.145
  WS02004401           JUNCTION      0.00   420.55     0  03:05           0        5.84       0.324
  WS02004402           JUNCTION      0.00   420.28     0  03:05           0        5.82       0.310
  WS02004403           JUNCTION      0.00   420.13     0  03:05           0         5.8       0.286
  WS02004404           JUNCTION      0.16   420.20     0  03:06     0.00457        5.79       0.219
  WS02004406           JUNCTION      0.00   420.17     0  03:06           0        5.76       0.536
  WS02004409           JUNCTION      0.00   420.14     0  03:07           0        5.72       0.230
  WS02004410           JUNCTION      0.00   419.69     0  03:07           0        5.71       0.266
  WS02004411           JUNCTION      0.00   419.33     0  03:08           0        5.69       0.278
  WS02004412           JUNCTION      0.00   419.10     0  03:08           0        5.68       0.308
  WS02004413           JUNCTION      0.00   418.95     0  03:09           0        5.66       0.467
  WS02004405           JUNCTION      0.04   420.20     0  03:06     0.00107        5.78       0.329
  WS02006109           JUNCTION      1.23   419.96     0  03:02      0.0347        5.92       0.343
  WS02006110           JUNCTION      0.00   419.94     0  03:02           0         5.9       0.317
  WS02006111           JUNCTION      0.00   429.87     0  03:03           0        5.87       0.064
  WS02006112           JUNCTION      9.00   423.09     0  03:03       0.026         5.9       0.457
  WS02006113           JUNCTION      0.00   419.94     0  03:03           0        5.88       0.132
  WS02006115           JUNCTION      0.00   421.65     0  03:03           0        5.87       0.291
  WS02006116           JUNCTION      0.00   420.97     0  03:04           0        5.85       0.272
  WS02006230           JUNCTION     10.28   329.66     0  03:12        0.29        5.03       0.230
  WS02006231           JUNCTION      0.00   318.75     0  03:12           0        4.75       0.130
  WS02006232           JUNCTION      0.00   318.46     0  03:11           0        4.76       0.299
  WS02006234           JUNCTION      0.00   318.10     0  03:12           0        4.76       0.145
  WS02006235           JUNCTION      0.00   317.91     0  03:11           0         4.8       0.168
  WS02006238           JUNCTION      0.00   230.35     0  04:40           0        4.06       0.151
  WS02006240           JUNCTION      0.00   230.10     0  02:36           0        4.06       0.260
  WS02006242           JUNCTION      0.00   231.51     0  02:32           0        4.06       0.317
  WS02006243           JUNCTION      0.00   232.70     0  02:29           0        4.06       0.176
  WS02006245           JUNCTION      0.00   233.60     0  02:30           0        4.07       0.211
  WS02006247           JUNCTION      0.00   234.25     0  02:29           0        4.07       0.161
  WS02006248           JUNCTION      0.00   234.75     0  02:28           0        4.08       0.107
  WS02006249           JUNCTION      0.00   235.35     0  02:27           0        4.09       0.237
  WS02006239           JUNCTION      0.00   229.81     0  02:39           0        4.06       0.179
  WS02006251           JUNCTION      0.08   236.50     0  02:25     0.00217         4.1       0.213
  WS02006252           JUNCTION      0.00   200.00     0  02:23           0        3.95       0.011
  WS02006253           JUNCTION      1.37    39.91     0  02:18     0.00336       0.146       2.554
  WS02006256           JUNCTION      0.00   600.00     0  00:30           0        1.99       0.101
  WS02004138           JUNCTION      0.00   380.00     0  01:20           0        9.01       0.059
  WS02004407           JUNCTION      0.00   420.15     0  03:06           0        5.73       0.106
  WS02006228           JUNCTION      0.00   418.75     0  03:02           0         5.9       0.228
  WS02006229           JUNCTION      0.00   418.66     0  03:02           0        5.91       0.211
  WS02006280           JUNCTION      0.00   205.19     0  02:19           0       0.897       0.008
  WS02006284           JUNCTION      0.10   205.18     0  02:19      0.0027       0.898       0.119
  WS02006287           JUNCTION      0.00   205.07     0  02:19           0       0.896       0.081
  WSF200               JUNCTION      0.00   418.90     0  03:10           0        5.62       0.062
  HS02004901           JUNCTION     11.14    11.14     0  02:11      0.0313      0.0314       5.928
  HS02004881           JUNCTION      4.51    38.86     0  02:18      0.0136       0.143       0.226
  HS02004876           JUNCTION      7.19    34.66     0  02:18      0.0261        0.13       0.407
  HS02004870           JUNCTION      7.96    27.60     0  02:18      0.0258       0.104       0.103
  HS02004862           JUNCTION      6.57    20.16     0  02:19      0.0314      0.0785       0.215
  HS02004856           JUNCTION      5.90    13.64     0  02:18      0.0194      0.0486       3.051
  HS02004852           JUNCTION      0.00     8.10     0  02:19           0      0.0292       0.174
  HS02004848           JUNCTION     13.12    13.12     0  02:22      0.0615      0.0615       0.071
  HS02004842           JUNCTION      0.00     5.46     0  02:32           0      0.0453      40.271
  HS02004837           JUNCTION     19.11    23.75     0  02:17       0.224       0.256       0.317
  HS02004830           JUNCTION      0.15    23.88     0  02:18     0.00423       0.247       0.502
  HS02004824           JUNCTION     14.79    38.49     0  02:22      0.0805       0.326       0.166
  HS02004817           JUNCTION      0.60    39.08     0  02:22      0.0169       0.342       5.118
  HS02004807           JUNCTION     14.97    52.72     0  02:20      0.0475       0.373       1.145
  HS02004802           JUNCTION      0.00    53.01     0  02:21           0       0.369       1.114
  HS02004799           JUNCTION     11.53   129.88     0  02:16      0.0384       0.465       0.490
  HS02004792           JUNCTION     51.47   118.58     0  02:16       0.168       0.427       0.096
  HS02004788           JUNCTION     17.31    69.08     0  02:17         0.1       0.261       0.150
  HS02004785           JUNCTION      0.15    52.12     0  02:16     0.00423       0.162       0.299
  HS02004777           JUNCTION      0.03    52.40     0  02:15    0.000846       0.162       3.291
  HS02004770           JUNCTION     43.62    53.57     0  02:13       0.134       0.163       1.934
  HS02004480           JUNCTION      0.00   153.17     0  02:17           0       0.543       0.134
  HS02004479           JUNCTION      0.00    23.74     0  02:19           0      0.0899       0.818
  HS02004478           JUNCTION      0.00   205.06     0  02:18           0       0.897       0.069
  YS02001745           JUNCTION     76.22    76.22     0  03:01       0.821       0.821       0.112
  YS02001748           JUNCTION      0.04   110.13     0  03:43     0.00127       0.849       0.651
  YS02001751           JUNCTION      0.01   165.10     0  03:45     0.00031       0.844       1.614
  YS02001754           JUNCTION      0.26   100.98     0  02:45     0.00733       0.812       2.546
  YS02001762           JUNCTION      0.00   121.87     0  02:57           0       0.894       2.277
  YS02001765           JUNCTION      0.00   129.24     0  02:59           0       0.894       2.469
  YS02001767           JUNCTION      0.54   144.76     0  02:59      0.0151       0.913       3.819
  YS02001770           JUNCTION     97.68   148.52     0  03:00        0.96        1.03       2.939
  YS02001774           JUNCTION      0.00    55.47     0  02:58           0       0.175      16.900
  YS02001779           JUNCTION      0.01    54.52     0  02:58    0.000141      0.0797      18.477
  YS02001882           JUNCTION      0.00     3.95     0  02:10           0     0.00526      46.731
  YS02001884           JUNCTION      0.00    11.35     0  02:07           0      0.0211      30.091
  YS02001759           JUNCTION     95.32   220.58     0  02:57       0.896        1.76       1.269
  YS02001887           JUNCTION    125.09   125.09     0  02:45        1.07        1.08       0.667
  YS02001890           JUNCTION      0.00   124.73     0  02:51           0        1.06       0.748
  YS02001898           JUNCTION      0.00   124.88     0  02:51           0        1.04       0.211
  YS02001901           JUNCTION      0.00   125.10     0  02:52           0        1.04       0.531
  YS02001904           JUNCTION      0.00   124.63     0  02:52           0        1.04       0.494
  YS02001907           JUNCTION      0.00   225.54     0  02:58           0        2.23       0.997
  YS02001910           JUNCTION      0.00   103.19     0  03:00           0         1.2       0.853
  YS02001915           JUNCTION     68.22   102.76     0  03:01       0.702        1.21       0.379
  YS02001918           JUNCTION      0.00    34.80     0  03:02           0       0.504       0.224
  YS02001619           JUNCTION     66.37    66.37     0  03:01       0.693       0.693       0.892
  YS02001629           JUNCTION      0.00   115.92     0  03:18           0       0.646       2.901
  YS02001641           JUNCTION      0.00   163.20     0  03:10           0        1.37       1.504
  YS02001644           JUNCTION     72.40   229.29     0  03:10       0.788        2.13       1.238
  YS02001652           JUNCTION      0.00   111.41     0  02:48           0       0.776       2.607
  YS02001655           JUNCTION      0.15   184.52     0  03:37     0.00434       0.809       1.889
  YS02001920           JUNCTION      2.87    34.82     0  03:02      0.0809       0.506       0.405
  YS02001923           JUNCTION      0.04    31.96     0  03:02     0.00106       0.425       0.071
  YS02001926           JUNCTION      0.05    31.99     0  03:01     0.00147       0.426       0.507
  YS02001929           JUNCTION     31.96    31.96     0  03:01       0.425       0.425       0.069
  YS02001658           JUNCTION      0.00   132.46     0  03:40           0       0.842       0.673
  YS02001661           JUNCTION      0.00    88.76     0  02:48           0       0.815       0.095
  YS02001664           JUNCTION     88.77    88.77     0  02:48       0.783       0.783       0.020
  YS02001622           JUNCTION      0.00    94.16     0  03:14           0       0.694       2.587
  YS02001633           JUNCTION     73.59   171.59     0  03:11       0.811        1.42       1.913
  YS02001649           JUNCTION      0.00   339.59     0  03:01           0        2.82       1.324
  YS02001757           JUNCTION      0.00   564.17     0  02:59           0        5.26       1.767
  YS02001895           JUNCTION      0.00   124.77     0  02:51           0        1.05       0.356
  YS02001625           JUNCTION      0.00   105.80     0  03:14           0       0.683       5.029
  YS02163301           JUNCTION      0.00   120.76     0  03:14           0       0.631       3.626
  YS02163601           JUNCTION      0.11   158.39     0  02:56      0.0031        1.39       2.130
  YS02164001           JUNCTION      0.00   159.59     0  03:00           0        1.37       1.285
  YS02001647           JUNCTION      0.00   233.90     0  03:15           0        2.09       1.207
  YSB1154              JUNCTION     12.79    12.79     0  02:16      0.0465      0.0479       3.108
  YSB6556              JUNCTION      0.00    12.78     0  02:18           0      0.0489       2.613
  YSB1174              JUNCTION     12.68    12.68     0  02:10      0.0339       0.035       3.812
  YSB1171              JUNCTION      0.00    23.70     0  02:16           0      0.0894       7.606
  YS02006553           JUNCTION      0.00   225.73     0  03:02           0        2.22       0.647
  YS02006561           JUNCTION      0.00   334.77     0  02:55           0        3.15       0.021
  YS02006556           JUNCTION      0.00   225.95     0  03:02           0        2.23       0.467
  YS02006558           JUNCTION    106.10   331.00     0  02:53       0.975        3.17       0.142
  YS02001783           JUNCTION      0.00   330.93     0  02:53           0        3.14       0.229
  YS02001784           JUNCTION      1.06   384.28     0  02:42      0.0299        3.17       0.336
  YS02001786           JUNCTION      0.06   383.32     0  02:42     0.00159        3.16       0.430
  YS02001788           JUNCTION      0.07   407.18     0  02:43       0.002        3.15       0.441
  YS02001790           JUNCTION      0.15   383.95     0  02:42     0.00437        3.14       0.542
  YS02001791           JUNCTION      0.00   384.20     0  02:42           0        3.12       0.457
  YS02001793           JUNCTION      0.00   399.41     0  02:35           0        3.11       0.537
  WS02004139           JUNCTION      0.32   380.37     0  01:20     0.00905        9.01       0.478
  WSC                  OUTFALL       0.00   796.83     0  02:49           0          15       0.000
  3                    OUTFALL       0.00   446.15     0  00:30           0        1.23       0.000
  4                    OUTFALL       0.00     0.00     0  00:00           0           0       0.000 ltr
  5                    OUTFALL       0.00     0.00     0  00:00           0           0       0.000 ltr
  JK-storage           STORAGE       0.00   563.91     0  04:01           0        3.25       0.495
  CC-storage           STORAGE       0.00   557.71     0  02:59           0        5.17       0.497
  XR-storage           STORAGE     323.40   323.40     0  02:59        7.02        7.62     -15.421
  
  
  **********************
  Node Surcharge Summary
  **********************
  
  Surcharging occurs when water rises above the top of the highest conduit.
  ---------------------------------------------------------------------
                                               Max. Height   Min. Depth
                                   Hours       Above Crown    Below Rim
  Node                 Type      Surcharged         Meters       Meters
  ---------------------------------------------------------------------
  WS02006109           JUNCTION        0.33          0.023        1.797
  WS02006228           JUNCTION        0.30          0.023        2.177
  YS02001762           JUNCTION        5.09          0.259        0.891
  YS02001765           JUNCTION        4.62          0.227        0.873
  YS02001767           JUNCTION        3.69          0.201        0.829
  YS02001770           JUNCTION        2.99          0.161        0.759
  YS02001774           JUNCTION        5.03          0.245        0.805
  YS02001759           JUNCTION        5.15          0.276        0.934
  YS02001641           JUNCTION        4.97          0.223        0.877
  YS02001644           JUNCTION        5.01          0.212        0.708
  YS02001652           JUNCTION        0.12          0.085        1.045
  YS02001633           JUNCTION        4.10          0.188        0.872
  YS02001649           JUNCTION        5.11          0.261        0.789
  YS02001757           JUNCTION        5.31          0.363        0.847
  YS02001625           JUNCTION        0.60          0.032        0.748
  YS02163301           JUNCTION        3.18          0.132        0.898
  YS02163601           JUNCTION        5.11          0.269        0.811
  YS02164001           JUNCTION        4.57          0.210        0.890
  YS02001647           JUNCTION        0.50          0.035        0.865
  YS02001790           JUNCTION        3.29          1.157        0.000
  YS02001791           JUNCTION        3.49          1.711        0.209
  YS02001793           JUNCTION        3.81          1.056        1.544
  
  
  *********************
  Node Flooding Summary
  *********************
  
  Flooding refers to all water that overflows a node, whether it ponds or not.
  --------------------------------------------------------------------------
                                                             Total   Maximum
                                 Maximum   Time of Max       Flood    Ponded
                        Hours       Rate    Occurrence      Volume     Depth
  Node                 Flooded       LPS   days hr:min    10^6 ltr    Meters
  --------------------------------------------------------------------------
  YS02001790              0.01     96.19      0  02:39       0.000     0.000
  JK-storage              2.93    384.25      0  02:42       0.945     0.000
  
  
  **********************
  Storage Volume Summary
  **********************
  
  --------------------------------------------------------------------------------------------------
                         Average     Avg  Evap Exfil       Maximum     Max    Time of Max    Maximum
                          Volume    Pcnt  Pcnt  Pcnt        Volume    Pcnt     Occurrence    Outflow
  Storage Unit           1000 m3    Full  Loss  Loss       1000 m3    Full    days hr:min        LPS
  --------------------------------------------------------------------------------------------------
  JK-storage               0.227      78     0     0         0.291     100       0  02:40     600.00
  CC-storage               1.166       7     0     0         1.664      11       0  05:21     200.00
  XR-storage               0.185      20     0     0         0.612      66       0  00:21     380.00
  
  
  ***********************
  Outfall Loading Summary
  ***********************
  
  -----------------------------------------------------------
                         Flow       Avg       Max       Total
                         Freq      Flow      Flow      Volume
  Outfall Node           Pcnt       LPS       LPS    10^6 ltr
  -----------------------------------------------------------
  WSC                  100.00    602.51    796.83      15.043
  3                     31.01    185.73    446.15       1.230
  4                      0.00      0.00      0.00       0.000
  5                      0.00      0.00      0.00       0.000
  -----------------------------------------------------------
  System                32.75    788.24    902.61      16.273
  
  
  ********************
  Link Flow Summary
  ********************
  
  -----------------------------------------------------------------------------
                                 Maximum  Time of Max   Maximum    Max/    Max/
                                  |Flow|   Occurrence   |Veloc|    Full    Full
  Link                 Type          LPS  days hr:min     m/sec    Flow   Depth
  -----------------------------------------------------------------------------
  WS02003066WSF200     CONDUIT    418.90     0  03:10      2.68    0.07    0.20
  WS02006287WS02006284 CONDUIT    205.09     0  02:19      1.62    0.10    0.22
  WS02006284WS02006280 CONDUIT    205.19     0  02:19      1.86    0.09    0.20
  WS02006280WS02006229 CONDUIT    205.19     0  02:19      2.99    0.04    0.14
  WS02006229WS02006228 CONDUIT    418.75     0  03:02      0.83    1.39    1.00
  WS02006256WS02006235 CONDUIT    158.12     0  00:23      2.30    1.67    1.00
  WS02006253WS02006251 CONDUIT     40.11     0  02:18      0.49    0.12    0.62
  WS02006252WS02006251 CONDUIT    200.53     0  02:23      1.97    0.74    0.76
  WS02006251WS02006249 CONDUIT    235.35     0  02:27      0.97    0.68    0.62
  WS02006249WS02006248 CONDUIT    234.75     0  02:28      1.06    1.29    0.58
  WS02006248WS02006247 CONDUIT    234.25     0  02:29      1.03    0.51    0.60
  WS02006247WS02006245 CONDUIT    233.60     0  02:30      1.01    1.85    0.63
  WS02006245WS02006243 CONDUIT    232.70     0  02:29      1.11    0.69    0.64
  WS02006243WS02006242 CONDUIT    231.51     0  02:32      0.97    0.49    0.74
  WS02006242WS02006240 CONDUIT    230.10     0  02:36      0.88    0.91    0.80
  WS02006240WS02006239 CONDUIT    229.81     0  02:39      0.99    0.72    0.79
  WS02006239WS02006238 CONDUIT    230.35     0  04:40      0.84    0.74    0.88
  WS02006238WS02006235 CONDUIT    235.43     0  04:40      0.91    0.53    0.91
  WS02006235WS02006234 CONDUIT    318.10     0  03:12      0.94    3.36    0.85
  WS02006234WS02006232 CONDUIT    318.46     0  03:11      1.02    0.64    0.91
  WS02006232WS02006231 CONDUIT    318.75     0  03:12      0.94    0.67    0.87
  WS02006231WS02006230 CONDUIT    319.38     0  03:12      1.29    4.84    0.71
  WS02006230WS02006229 CONDUIT    330.71     0  03:13      0.86    7.36    1.00
  WS02006228WS02006109 CONDUIT    418.73     0  03:02      0.83    1.83    1.00
  WS02006116WS02004401 CONDUIT    420.55     0  03:05      0.77    0.58    0.75
  WS02006115WS02006116 CONDUIT    420.97     0  03:04      0.81    0.54    0.66
  WS02006113WS02006111 CONDUIT    429.87     0  03:03      2.25    0.52    0.41
  WS02006112WS02006115 CONDUIT    421.65     0  03:03      0.63    0.25    0.79
  WS02006111WS02006112 CONDUIT    420.82     0  03:03      1.29    0.20    0.65
  WS02006110WS02006113 CONDUIT    419.94     0  03:03      1.04    0.38    0.75
  WS02006109WS02006110 CONDUIT    419.94     0  03:02      0.85    0.81    0.95
  WS02004411WS02004412 CONDUIT    419.10     0  03:08      0.82    0.60    0.62
  WS02004401WS02004402 CONDUIT    420.28     0  03:05      0.80    0.50    0.77
  WS02004413WS02003067 CONDUIT    418.90     0  03:10      0.97    0.18    0.54
  WS02004412WS02004413 CONDUIT    418.95     0  03:09      0.70    0.28    0.71
  WS02004410WS02004411 CONDUIT    419.33     0  03:08      0.84    0.57    0.61
  WS02004409WS02004410 CONDUIT    419.69     0  03:07      0.87    0.54    0.59
  WS02004407WS02004409 CONDUIT    420.14     0  03:07      1.34    0.15    0.42
  WS02004406WS02004407 CONDUIT    420.15     0  03:06      0.90    0.19    0.57
  WS02004405WS02004406 CONDUIT    420.17     0  03:06      0.62    0.83    0.88
  WS02004404WS02004405 CONDUIT    420.16     0  03:06      0.88    4.12    0.88
  WS02004403WS02004404 CONDUIT    420.04     0  03:06      0.75    0.30    0.85
  WS02004402WS02004403 CONDUIT    420.13     0  03:05      0.79    0.60    0.80
  WS02004139WS02001211 CONDUIT    380.82     0  04:53      0.69    0.48    0.59
  WS02004138WS02004139 CONDUIT    380.05     0  01:20      2.95    0.08    0.43
  WS02003067WS02003066 CONDUIT    418.91     0  03:10      1.05    0.13    0.38
  WS02001213WS02003059 CONDUIT    390.35     0  04:52      0.68    0.64    0.74
  WS02001212WS02001213 CONDUIT    389.34     0  04:53      1.32    0.60    0.45
  WS02001211WS02001212 CONDUIT    388.75     0  04:53      0.78    0.30    0.63
  WS02003072WS02003073 CONDUIT    795.01     0  02:48      1.63    1.72    0.45
  WS02003069WS02003072 CONDUIT    795.00     0  02:48      1.54    0.38    0.47
  WS02003060WS02003069 CONDUIT    794.71     0  02:47      1.79    0.31    0.41
  WS02003059WS02003060 CONDUIT    391.79     0  04:52      0.95    0.26    0.62
  HS02004901HS02004770 CONDUIT     10.28     0  02:16      0.05    0.04    0.32
  HS02004876HS02004881 CONDUIT     34.73     0  02:19      0.56    0.37    0.09
  HS02004870HS02004876 CONDUIT     27.59     0  02:19      0.39    0.02    0.10
  HS02004842HS02004848 CONDUIT      5.46     0  02:32      0.03    0.00    0.27
  HS02004837HS02004842 CONDUIT      5.63     0  02:32      0.42    0.00    0.29
  HS02004830HS02004837 CONDUIT     23.73     0  02:18      0.44    0.02    0.08
  HS02004824HS02004830 CONDUIT     23.88     0  02:19      0.48    0.03    0.07
  HS02004817HS02004824 CONDUIT     38.48     0  02:22      0.17    0.02    0.40
  HS02004770HS02004777 CONDUIT     52.37     0  02:15      0.23    0.10    0.33
  HS02004799HS02004480 CONDUIT    129.69     0  02:17      0.59    0.16    0.31
  HS02004792HS02004799 CONDUIT    118.52     0  02:16      0.68    0.07    0.25
  HS02004788HS02004792 CONDUIT     69.02     0  02:17      0.83    0.05    0.12
  HS02004785HS02004788 CONDUIT     52.02     0  02:17      0.51    0.39    0.14
  HS02004777HS02004785 CONDUIT     51.97     0  02:16      0.27    0.06    0.27
  HS02004480HS02004478 CONDUIT    153.12     0  02:17      0.96    0.64    0.23
  HS02004479HS02004480 CONDUIT     23.96     0  02:19      0.15    0.02    0.31
  HS02004862HS02004870 CONDUIT     20.13     0  02:20      0.47    0.02    0.06
  HS02004848HS02004852 CONDUIT      8.10     0  02:19      0.31    0.01    0.04
  HS02004856HS02004862 CONDUIT     13.62     0  02:19      0.34    0.01    0.06
  HS02004852HS02004856 CONDUIT      8.07     0  02:20      0.12    0.01    0.09
  HS02004802HS02004478 CONDUIT     53.38     0  02:22      0.30    0.05    0.26
  HS02004478WS02006287 CONDUIT    205.07     0  02:19      1.32    0.06    0.17
  HS02004817HS02004807 CONDUIT     39.63     0  02:24      0.11    0.02    0.51
  HS02004807HS02004802 CONDUIT     53.01     0  02:21      0.25    0.10    0.30
  YS02001759YS02001757 CONDUIT    222.96     0  02:55      0.28    0.16    1.00
  YS02001762YS02001759 CONDUIT    125.51     0  02:57      0.17    0.14    1.00
  YS02001765YS02001762 CONDUIT    121.87     0  02:57      0.23    0.11    1.00
  YS02001770YS02001767 CONDUIT    144.22     0  02:59      0.32    0.57    1.00
  YS02001774YS02001770 CONDUIT     55.47     0  02:58      0.15    0.04    1.00
  YS02001779YS02001774 CONDUIT     54.52     0  02:58      0.07    0.03    0.98
  YS02001649YS02001757 CONDUIT    338.45     0  03:01      0.43    0.21    1.00
  YS02001767YS02001765 CONDUIT    129.24     0  02:59      0.26    0.16    1.00
  YS02006561YS02001783 CONDUIT    330.93     0  02:53      1.78    0.17    0.55
  YS02001783YS02001784 CONDUIT    383.22     0  02:42      1.23    0.53    0.83
  YS02001784YS02001785 CONDUIT    383.26     0  02:42      1.30    0.89    0.90
  YS02001788YS02001790 CONDUIT    383.80     0  02:42      1.85    0.28    0.97
  YS02001790YS02001791 CONDUIT    384.20     0  02:42      2.18    0.42    1.00
  YS02001791YS02001793 CONDUIT    399.41     0  02:35      4.25    0.17    1.00
  YS02001910YS02001907 CONDUIT    103.31     0  03:01      0.50    0.06    0.75
  YS02001786YS02001788 CONDUIT    407.11     0  02:43      1.75    0.78    0.91
  YS02001915YS02001910 CONDUIT    103.19     0  03:00      0.44    0.05    0.54
  YS02001918YS02001915 CONDUIT     34.78     0  03:03      0.44    0.02    0.26
  YS02001923YS02001920 CONDUIT     31.95     0  03:02      0.46    0.01    0.14
  YS02001926YS02001923 CONDUIT     31.92     0  03:02      0.50    0.05    0.14
  YS02001929YS02001926 CONDUIT     31.94     0  03:01      0.53    0.02    0.13
  YS02001920YS02001918 CONDUIT     34.80     0  03:02      0.47    0.03    0.15
  YS02001629YS02163301 CONDUIT    120.76     0  03:14      0.16    0.15    1.00
  YS02001619YS02001622 CONDUIT     94.16     0  03:14      0.65    0.14    0.70
  YS02001622YS02001625 CONDUIT    105.80     0  03:14      0.25    0.06    0.86
  YS02001625YS02001629 CONDUIT    115.92     0  03:18      0.25    0.06    0.85
  YS02163301YS02001633 CONDUIT    103.49     0  03:11      0.13    0.10    1.00
  YS02163601YS02164001 CONDUIT    159.59     0  03:00      0.20    0.14    1.00
  YS02164001YS02001641 CONDUIT    163.20     0  03:10      0.21    0.22    1.00
  YS02001641YS02001644 CONDUIT    162.35     0  03:15      0.21    0.52    1.00
  YS02001647YS02001649 CONDUIT    249.00     0  03:08      0.33    0.13    1.00
  YS02006553YS02006556 CONDUIT    225.95     0  03:02      0.32    0.19    0.83
  YS02006556YS02006558 CONDUIT    226.10     0  03:02      0.32    0.18    0.86
  YSB6556YSB1171       CONDUIT     12.95     0  02:20      0.06    0.01    0.57
  YS02001907YS02006553 CONDUIT    225.73     0  03:02      0.27    0.27    0.94
  YS02006558YS02006561 CONDUIT    334.77     0  02:55      2.36    0.74    0.50
  YS02001633YS02163601 CONDUIT    158.28     0  02:56      0.20    0.17    1.00
  YS02001644YS02001647 CONDUIT    233.90     0  03:15      0.31    0.14    1.00
  YS02001745YS02001748 CONDUIT     76.21     0  03:01      1.41    0.03    0.28
  YS02001748YS02001751 CONDUIT    165.08     0  03:45      1.09    0.08    0.64
  YS02001751YS02001754 CONDUIT    100.72     0  02:45      0.96    0.05    0.85
  YS02001754YS02001757 CONDUIT    134.88     0  03:30      0.33    0.05    1.00
  YS02001882YS02001884 CONDUIT      3.95     0  02:10      0.06    0.00    0.47
  YS02001884YS02001887 CONDUIT     11.35     0  02:07      0.06    0.02    0.57
  YS02001890YS02001895 CONDUIT    124.77     0  02:51      0.29    0.06    0.54
  YS02001895YS02001898 CONDUIT    124.88     0  02:51      0.48    0.22    0.40
  YS02001898YS02001901 CONDUIT    125.10     0  02:52      0.34    0.08    0.48
  YS02001901YS02001904 CONDUIT    124.63     0  02:52      0.29    0.19    0.53
  YS02001904YS02001907 CONDUIT    124.79     0  02:51      0.22    0.04    0.69
  YS02001887YS02001890 CONDUIT    124.73     0  02:51      0.24    0.21    0.62
  YS02001652YS02001649 CONDUIT    155.44     0  03:07      0.32    0.08    1.00
  YS02001655YS02001652 CONDUIT    111.41     0  02:48      1.04    0.05    0.90
  YS02001658YS02001655 CONDUIT    184.37     0  03:37      1.26    0.08    0.63
  YS02001661YS02001658 CONDUIT     92.71     0  04:54      1.46    0.04    0.31
  YS02001664YS02001661 CONDUIT     88.76     0  02:48      1.13    0.03    0.16
  YSB1154YSB6556       CONDUIT     12.78     0  02:18      0.19    0.02    0.46
  YSB1174YSB1171       CONDUIT     11.78     0  02:11      0.05    0.02    0.58
  YSB1171HS02004479    CONDUIT     23.74     0  02:19      0.54    0.02    0.45
  HS02004881HS02006253 CONDUIT     38.86     0  02:18      1.66    0.01    0.10
  YS02001793JiankangQianchi CONDUIT    563.91     0  04:01      2.42    0.04    1.00
  YS02001757CaochengTiaoxuchi CONDUIT    557.71     0  02:59      1.18    0.24    0.80
  WSF200WS02003060     CONDUIT    418.92     0  03:10      1.59    0.09    0.29
  1                    CONDUIT    796.83     0  02:49      3.13    0.28    0.36
  2                    CONDUIT      0.00     0  00:00      0.00    0.00    0.00
  3                    CONDUIT    446.15     0  00:30      9.55    0.71    0.63
  4                    CONDUIT      0.00     0  00:00      0.00    0.00    0.00
  CC-Pump-1            PUMP         0.00     0  00:00              0.00
  CC-Pump-2            PUMP       200.00     0  02:23              1.00
  JK-Pump-1            PUMP       300.00     0  00:30              1.00
  JK-Pump-2            PUMP       300.00     0  00:30              1.00
  XR-Pump-1            PUMP        95.00     0  00:20              1.00
  XR-Pump-2            PUMP        95.00     0  00:00              1.00
  XR-Pump-3            PUMP        95.00     0  00:00              1.00
  XR-Pump-4            PUMP        95.00     0  00:30              1.00
  
  
  ***************************
  Flow Classification Summary
  ***************************
  
  -------------------------------------------------------------------------------------
                      Adjusted    ---------- Fraction of Time in Flow Class ---------- 
                       /Actual         Up    Down  Sub   Sup   Up    Down  Norm  Inlet 
  Conduit               Length    Dry  Dry   Dry   Crit  Crit  Crit  Crit  Ltd   Ctrl  
  -------------------------------------------------------------------------------------
  WS02003066WSF200        1.00   0.05  0.02  0.00  0.00  0.94  0.00  0.00  0.75  0.00
  WS02006287WS02006284    1.00   0.04  0.02  0.00  0.71  0.24  0.00  0.00  0.77  0.00
  WS02006284WS02006280    1.00   0.04  0.00  0.00  0.00  0.00  0.00  0.96  0.00  0.00
  WS02006280WS02006229    1.00   0.04  0.00  0.00  0.00  0.00  0.00  0.96  0.00  0.00
  WS02006229WS02006228    1.00   0.00  0.00  0.00  1.00  0.00  0.00  0.00  0.00  0.00
  WS02006256WS02006235    1.00   0.01  0.00  0.00  0.99  0.00  0.00  0.00  0.00  0.00
  WS02006253WS02006251    1.00   0.01  0.03  0.00  0.96  0.00  0.00  0.00  0.00  0.00
  WS02006252WS02006251    1.00   0.08  0.00  0.00  0.00  0.00  0.92  0.00  0.00  0.00
  WS02006251WS02006249    1.00   0.00  0.00  0.00  1.00  0.00  0.00  0.00  0.27  0.00
  WS02006249WS02006248    1.00   0.00  0.00  0.00  0.92  0.00  0.08  0.00  0.00  0.00
  WS02006248WS02006247    1.00   0.00  0.00  0.00  0.97  0.00  0.00  0.03  0.17  0.00
  WS02006247WS02006245    1.00   0.00  0.00  0.00  0.97  0.00  0.00  0.02  0.00  0.00
  WS02006245WS02006243    1.00   0.01  0.00  0.00  0.94  0.00  0.00  0.05  0.01  0.00
  WS02006243WS02006242    1.00   0.01  0.00  0.00  0.99  0.00  0.00  0.00  0.23  0.00
  WS02006242WS02006240    1.00   0.01  0.00  0.00  0.99  0.00  0.00  0.00  0.00  0.00
  WS02006240WS02006239    1.00   0.01  0.00  0.00  0.95  0.00  0.00  0.04  0.01  0.00
  WS02006239WS02006238    1.00   0.01  0.00  0.00  0.99  0.00  0.00  0.00  0.10  0.00
  WS02006238WS02006235    1.00   0.01  0.00  0.00  0.99  0.00  0.00  0.00  0.00  0.00
  WS02006235WS02006234    1.00   0.01  0.00  0.00  0.95  0.00  0.04  0.00  0.00  0.00
  WS02006234WS02006232    1.00   0.01  0.00  0.00  0.99  0.00  0.00  0.00  0.07  0.00
  WS02006232WS02006231    1.00   0.01  0.00  0.00  0.99  0.00  0.00  0.00  0.00  0.00
  WS02006231WS02006230    1.00   0.01  0.00  0.00  0.38  0.00  0.61  0.00  0.00  0.00
  WS02006230WS02006229    1.00   0.00  0.00  0.00  0.99  0.00  0.00  0.01  0.00  0.00
  WS02006228WS02006109    1.00   0.00  0.00  0.00  1.00  0.00  0.00  0.00  0.00  0.00
  WS02006116WS02004401    1.00   0.03  0.00  0.00  0.97  0.00  0.00  0.00  0.00  0.00
  WS02006115WS02006116    1.00   0.03  0.00  0.00  0.97  0.00  0.00  0.00  0.00  0.00
  WS02006113WS02006111    1.00   0.02  0.00  0.00  0.00  0.98  0.00  0.00  0.13  0.00
  WS02006112WS02006115    1.00   0.02  0.01  0.00  0.97  0.00  0.00  0.00  0.00  0.00
  WS02006111WS02006112    1.00   0.02  0.00  0.00  0.97  0.00  0.00  0.01  0.94  0.00
  WS02006110WS02006113    1.00   0.00  0.02  0.00  0.98  0.00  0.00  0.00  0.00  0.00
  WS02006109WS02006110    1.00   0.00  0.00  0.00  1.00  0.00  0.00  0.00  0.00  0.00
  WS02004411WS02004412    1.00   0.04  0.00  0.00  0.96  0.00  0.00  0.00  0.00  0.00
  WS02004401WS02004402    1.00   0.03  0.00  0.00  0.97  0.00  0.00  0.00  0.00  0.00
  WS02004413WS02003067    1.00   0.04  0.01  0.00  0.00  0.00  0.94  0.00  0.00  0.00
  WS02004412WS02004413    1.00   0.04  0.00  0.00  0.96  0.00  0.00  0.00  0.03  0.00
  WS02004410WS02004411    1.00   0.04  0.00  0.00  0.96  0.00  0.00  0.00  0.03  0.00
  WS02004409WS02004410    1.00   0.04  0.00  0.00  0.96  0.00  0.00  0.00  0.03  0.00
  WS02004407WS02004409    1.00   0.04  0.00  0.00  0.96  0.00  0.00  0.00  0.86  0.00
  WS02004406WS02004407    1.00   0.00  0.04  0.00  0.96  0.00  0.00  0.00  0.00  0.00
  WS02004405WS02004406    1.00   0.00  0.00  0.00  1.00  0.00  0.00  0.00  0.04  0.00
  WS02004404WS02004405    1.00   0.00  0.00  0.00  1.00  0.00  0.00  0.00  0.00  0.00
  WS02004403WS02004404    1.00   0.00  0.03  0.00  0.97  0.00  0.00  0.00  0.01  0.00
  WS02004402WS02004403    1.00   0.03  0.00  0.00  0.97  0.00  0.00  0.00  0.00  0.00
  WS02004139WS02001211    1.00   0.00  0.00  0.00  1.00  0.00  0.00  0.00  0.00  0.00
  WS02004138WS02004139    1.00   0.00  0.00  0.00  1.00  0.00  0.00  0.00  1.00  0.00
  WS02003067WS02003066    1.00   0.06  0.00  0.00  0.94  0.00  0.00  0.00  0.00  0.00
  WS02001213WS02003059    1.00   0.00  0.00  0.00  1.00  0.00  0.00  0.00  0.00  0.00
  WS02001212WS02001213    1.00   0.00  0.00  0.00  0.93  0.00  0.07  0.00  0.00  0.00
  WS02001211WS02001212    1.00   0.00  0.00  0.00  1.00  0.00  0.00  0.00  0.00  0.00
  WS02003072WS02003073    1.00   0.00  0.00  0.00  0.00  0.00  0.00  1.00  0.00  0.00
  WS02003069WS02003072    1.00   0.00  0.00  0.00  1.00  0.00  0.00  0.00  0.15  0.00
  WS02003060WS02003069    1.00   0.00  0.00  0.00  1.00  0.00  0.00  0.00  0.02  0.00
  WS02003059WS02003060    1.00   0.00  0.00  0.00  1.00  0.00  0.00  0.00  0.01  0.00
  HS02004901HS02004770    1.00   0.04  0.00  0.00  0.96  0.00  0.00  0.00  0.02  0.00
  HS02004876HS02004881    1.00   0.00  0.00  0.00  1.00  0.00  0.00  0.00  0.00  0.00
  HS02004870HS02004876    1.00   0.00  0.00  0.00  1.00  0.00  0.00  0.00  0.95  0.00
  HS02004842HS02004848    1.00   0.00  0.04  0.00  0.96  0.00  0.00  0.00  0.68  0.00
  HS02004837HS02004842    1.00   0.00  0.00  0.00  1.00  0.00  0.00  0.00  0.11  0.00
  HS02004830HS02004837    1.00   0.00  0.00  0.00  1.00  0.00  0.00  0.00  0.99  0.00
  HS02004824HS02004830    1.00   0.00  0.00  0.00  1.00  0.00  0.00  0.00  0.00  0.00
  HS02004817HS02004824    1.00   0.00  0.00  0.00  1.00  0.00  0.00  0.00  1.00  0.00
  HS02004770HS02004777    1.00   0.00  0.04  0.00  0.96  0.00  0.00  0.00  0.07  0.00
  HS02004799HS02004480    1.00   0.00  0.01  0.00  0.94  0.00  0.05  0.00  0.00  0.00
  HS02004792HS02004799    1.00   0.00  0.00  0.00  1.00  0.00  0.00  0.00  0.98  0.00
  HS02004788HS02004792    1.00   0.00  0.00  0.00  1.00  0.00  0.00  0.00  0.98  0.00
  HS02004785HS02004788    1.00   0.00  0.00  0.00  1.00  0.00  0.00  0.00  0.00  0.00
  HS02004777HS02004785    1.00   0.00  0.00  0.00  1.00  0.00  0.00  0.00  0.21  0.00
  HS02004480HS02004478    1.00   0.05  0.00  0.00  0.75  0.00  0.00  0.20  0.00  0.00
  HS02004479HS02004480    1.00   0.01  0.00  0.00  0.99  0.00  0.00  0.00  0.16  0.00
  HS02004862HS02004870    1.00   0.00  0.00  0.00  1.00  0.00  0.00  0.00  0.06  0.00
  HS02004848HS02004852    1.00   0.04  0.00  0.00  0.96  0.00  0.00  0.00  0.71  0.00
  HS02004856HS02004862    1.00   0.00  0.07  0.00  0.93  0.00  0.00  0.00  0.74  0.00
  HS02004852HS02004856    1.00   0.04  0.01  0.00  0.95  0.00  0.00  0.00  0.83  0.00
  HS02004802HS02004478    1.00   0.04  0.01  0.00  0.95  0.00  0.00  0.00  0.01  0.00
  HS02004478WS02006287    1.00   0.05  0.00  0.00  0.88  0.07  0.00  0.00  0.77  0.00
  HS02004817HS02004807    1.00   0.00  0.04  0.00  0.96  0.00  0.00  0.00  0.00  0.00
  HS02004807HS02004802    1.00   0.04  0.00  0.00  0.95  0.00  0.00  0.00  0.01  0.00
  YS02001759YS02001757    1.00   0.00  0.00  0.00  1.00  0.00  0.00  0.00  0.17  0.00
  YS02001762YS02001759    1.00   0.00  0.00  0.00  1.00  0.00  0.00  0.00  0.04  0.00
  YS02001765YS02001762    1.00   0.00  0.00  0.00  1.00  0.00  0.00  0.00  0.22  0.00
  YS02001770YS02001767    1.00   0.00  0.00  0.00  1.00  0.00  0.00  0.00  0.00  0.00
  YS02001774YS02001770    1.00   0.00  0.05  0.00  0.95  0.00  0.00  0.00  0.07  0.00
  YS02001779YS02001774    1.00   0.00  0.00  0.00  1.00  0.00  0.00  0.00  0.26  0.00
  YS02001649YS02001757    1.00   0.00  0.00  0.00  1.00  0.00  0.00  0.00  0.19  0.00
  YS02001767YS02001765    1.00   0.00  0.00  0.00  1.00  0.00  0.00  0.00  0.01  0.00
  YS02006561YS02001783    1.00   0.07  0.00  0.00  0.55  0.38  0.00  0.00  0.73  0.00
  YS02001783YS02001784    1.00   0.00  0.07  0.00  0.93  0.00  0.00  0.00  0.00  0.00
  YS02001784YS02001785    1.00   0.00  0.00  0.00  1.00  0.00  0.00  0.00  0.25  0.00
  YS02001788YS02001790    1.00   0.00  0.00  0.00  0.69  0.31  0.00  0.00  0.46  0.00
  YS02001790YS02001791    1.00   0.00  0.00  0.00  0.65  0.35  0.00  0.00  0.22  0.00
  YS02001791YS02001793    1.00   0.00  0.00  0.00  0.69  0.31  0.00  0.00  0.04  0.00
  YS02001910YS02001907    1.00   0.00  0.00  0.00  0.99  0.00  0.00  0.00  0.13  0.00
  YS02001786YS02001788    1.00   0.00  0.00  0.00  0.66  0.34  0.00  0.00  0.00  0.00
  YS02001915YS02001910    1.00   0.00  0.00  0.00  1.00  0.00  0.00  0.00  0.24  0.00
  YS02001918YS02001915    1.00   0.00  0.00  0.00  1.00  0.00  0.00  0.00  0.81  0.00
  YS02001923YS02001920    1.00   0.00  0.00  0.00  1.00  0.00  0.00  0.00  1.00  0.00
  YS02001926YS02001923    1.00   0.00  0.03  0.00  0.00  0.00  0.97  0.00  0.00  0.00
  YS02001929YS02001926    1.00   0.00  0.04  0.00  0.96  0.00  0.00  0.00  0.87  0.00
  YS02001920YS02001918    1.00   0.00  0.00  0.00  1.00  0.00  0.00  0.00  0.00  0.00
  YS02001629YS02163301    1.00   0.06  0.00  0.00  0.94  0.00  0.00  0.00  0.00  0.00
  YS02001619YS02001622    1.00   0.04  0.00  0.00  0.96  0.00  0.00  0.00  0.00  0.00
  YS02001622YS02001625    1.00   0.04  0.00  0.00  0.96  0.00  0.00  0.00  0.13  0.00
  YS02001625YS02001629    1.00   0.04  0.03  0.00  0.92  0.00  0.01  0.00  0.00  0.00
  YS02163301YS02001633    1.00   0.00  0.06  0.00  0.94  0.00  0.00  0.00  0.00  0.00
  YS02163601YS02164001    1.00   0.00  0.03  0.00  0.97  0.00  0.00  0.00  0.00  0.00
  YS02164001YS02001641    1.00   0.00  0.03  0.00  0.97  0.00  0.00  0.00  0.07  0.00
  YS02001641YS02001644    1.00   0.00  0.00  0.00  1.00  0.00  0.00  0.00  0.00  0.00
  YS02001647YS02001649    1.00   0.00  0.07  0.00  0.93  0.00  0.00  0.00  0.01  0.00
  YS02006553YS02006556    1.00   0.00  0.00  0.00  1.00  0.00  0.00  0.00  0.03  0.00
  YS02006556YS02006558    1.00   0.00  0.00  0.00  1.00  0.00  0.00  0.00  0.00  0.00
  YSB6556YSB1171          1.00   0.01  0.03  0.00  0.96  0.00  0.00  0.00  0.00  0.00
  YS02001907YS02006553    1.00   0.00  0.00  0.00  1.00  0.00  0.00  0.00  0.00  0.00
  YS02006558YS02006561    1.00   0.07  0.00  0.00  0.00  0.93  0.00  0.00  0.71  0.00
  YS02001633YS02163601    1.00   0.00  0.00  0.00  1.00  0.00  0.00  0.00  0.20  0.00
  YS02001644YS02001647    1.00   0.00  0.07  0.00  0.93  0.00  0.00  0.00  0.00  0.00
  YS02001745YS02001748    1.00   0.00  0.00  0.00  0.87  0.01  0.00  0.12  0.57  0.00
  YS02001748YS02001751    1.00   0.00  0.00  0.00  0.98  0.02  0.00  0.00  0.24  0.00
  YS02001751YS02001754    1.00   0.00  0.00  0.00  0.93  0.00  0.00  0.07  0.02  0.00
  YS02001754YS02001757    1.00   0.00  0.00  0.00  1.00  0.00  0.00  0.00  0.26  0.00
  YS02001882YS02001884    1.00   0.06  0.00  0.00  0.94  0.00  0.00  0.00  0.00  0.00
  YS02001884YS02001887    1.00   0.02  0.01  0.00  0.96  0.00  0.00  0.00  0.00  0.00
  YS02001890YS02001895    1.00   0.00  0.06  0.00  0.94  0.00  0.00  0.00  0.00  0.00
  YS02001895YS02001898    1.00   0.06  0.00  0.00  0.93  0.00  0.01  0.00  0.00  0.00
  YS02001898YS02001901    1.00   0.06  0.00  0.00  0.94  0.00  0.00  0.00  0.02  0.00
  YS02001901YS02001904    1.00   0.06  0.00  0.00  0.94  0.00  0.00  0.00  0.00  0.00
  YS02001904YS02001907    1.00   0.00  0.06  0.00  0.94  0.00  0.00  0.00  0.00  0.00
  YS02001887YS02001890    1.00   0.00  0.00  0.00  0.99  0.00  0.01  0.00  0.00  0.00
  YS02001652YS02001649    1.00   0.00  0.00  0.00  1.00  0.00  0.00  0.00  0.26  0.00
  YS02001655YS02001652    1.00   0.00  0.00  0.00  0.93  0.00  0.00  0.07  0.02  0.00
  YS02001658YS02001655    1.00   0.00  0.05  0.00  0.92  0.02  0.00  0.00  0.11  0.00
  YS02001661YS02001658    1.00   0.05  0.00  0.00  0.87  0.08  0.00  0.00  0.42  0.00
  YS02001664YS02001661    1.00   0.04  0.00  0.00  0.76  0.19  0.00  0.00  0.86  0.00
  YSB1154YSB6556          1.00   0.04  0.00  0.00  0.96  0.00  0.00  0.00  0.02  0.00
  YSB1174YSB1171          1.00   0.01  0.02  0.00  0.96  0.00  0.00  0.00  0.00  0.00
  YSB1171HS02004479       1.00   0.01  0.00  0.00  0.98  0.00  0.00  0.01  0.13  0.00
  HS02004881HS02006253    1.00   0.01  0.00  0.00  0.91  0.00  0.00  0.08  0.70  0.00
  YS02001793JiankangQianchi    1.00   0.00  0.00  0.00  0.97  0.03  0.00  0.00  0.34  0.00
  YS02001757CaochengTiaoxuchi    1.00   0.00  0.08  0.00  0.92  0.00  0.00  0.00  0.00  0.00
  WSF200WS02003060        1.00   0.00  0.05  0.00  0.83  0.12  0.00  0.00  0.51  0.00
  1                       1.00   0.00  0.00  0.00  0.00  1.00  0.00  0.00  0.24  0.00
  2                       1.00   1.00  0.00  0.00  0.00  0.00  0.00  0.00  0.00  0.00
  3                       1.00   0.69  0.00  0.00  0.00  0.31  0.00  0.00  0.41  0.00
  4                       1.00   1.00  0.00  0.00  0.00  0.00  0.00  0.00  0.00  0.00
  
  
  *************************
  Conduit Surcharge Summary
  *************************
  
  ----------------------------------------------------------------------------
                                                           Hours        Hours 
                         --------- Hours Full --------   Above Full   Capacity
  Conduit                Both Ends  Upstream  Dnstream   Normal Flow   Limited
  ----------------------------------------------------------------------------
  WS02006229WS02006228        0.30      0.44      0.30      2.21         0.30
  WS02006256WS02006235        5.51      5.51      6.63      1.85         0.01
  WS02006249WS02006248        0.01      0.01      0.01      5.45         0.01
  WS02006247WS02006245        0.01      0.01      0.01      5.46         0.01
  WS02006235WS02006234        0.01      0.01      0.01      5.52         0.01
  WS02006231WS02006230        0.01      0.01      0.01      5.52         0.01
  WS02006230WS02006229        1.23      2.16      1.23      5.64         1.23
  WS02006228WS02006109        0.33      0.79      0.33      2.53         0.33
  WS02006111WS02006112        0.01      0.01      2.24      0.01         0.01
  WS02006110WS02006113        0.01      0.01      0.60      0.01         0.01
  WS02006109WS02006110        0.01      0.01      0.79      0.01         0.01
  WS02004404WS02004405        0.01      0.01      0.01      5.60         0.01
  WS02003072WS02003073        0.01      0.01      0.01      5.51         0.01
  YS02001759YS02001757        5.15      5.15      5.31      0.01         0.01
  YS02001762YS02001759        5.09      5.09      5.15      0.01         0.01
  YS02001765YS02001762        4.62      4.62      5.09      0.01         0.01
  YS02001770YS02001767        3.52      3.54      3.69      0.01         0.29
  YS02001774YS02001770        2.99      2.99      5.03      0.01         0.01
  YS02001779YS02001774        0.01      0.01      5.03      0.01         0.01
  YS02001649YS02001757        5.11      5.11      5.31      0.01         0.01
  YS02001767YS02001765        3.69      3.69      4.62      0.01         0.01
  YS02001788YS02001790        0.01      0.01      3.29      0.01         0.01
  YS02001790YS02001791        3.29      3.29      3.49      0.01         0.01
  YS02001791YS02001793        3.49      3.49      3.93      0.01         0.01
  YS02001629YS02163301        2.53      2.53      3.18      0.01         0.01
  YS02001622YS02001625        0.01      0.01      0.60      0.01         0.01
  YS02001625YS02001629        0.01      0.01      0.60      0.01         0.01
  YS02163301YS02001633        3.18      3.18      4.67      0.01         0.01
  YS02163601YS02164001        4.57      4.57      5.11      0.01         0.01
  YS02164001YS02001641        4.57      4.57      4.97      0.01         0.01
  YS02001641YS02001644        4.96      4.97      5.01      0.01         0.37
  YS02001647YS02001649        0.50      0.50      5.11      0.01         0.01
  YS02001633YS02163601        4.10      4.10      5.11      0.01         0.01
  YS02001644YS02001647        0.50      0.50      5.01      0.01         0.01
  YS02001754YS02001757        0.34      0.34      5.31      0.01         0.01
  YS02001652YS02001649        0.82      0.82      5.11      0.01         0.01
  YS02001655YS02001652        0.01      0.01      0.12      0.01         0.01
  YS02001793JiankangQianchi        3.81      3.81      5.73      0.01         0.01
  YS02001757CaochengTiaoxuchi        0.01      0.01      5.31      0.01         0.01
  
  
  ***************
  Pumping Summary
  ***************
  
  ---------------------------------------------------------------------------------------------------------
                                                  Min       Avg       Max     Total     Power    % Time Off
                        Percent   Number of      Flow      Flow      Flow    Volume     Usage    Pump Curve
  Pump                 Utilized   Start-Ups       LPS       LPS       LPS  10^6 ltr     Kw-hr    Low   High
  ---------------------------------------------------------------------------------------------------------
  CC-Pump-1                0.00           0      0.00      0.00      0.00     0.000      0.00    0.0    0.0
  CC-Pump-2               70.66           1      0.00    199.12    200.00     3.953     12.22    0.0   17.4
  JK-Pump-1               36.16           2      0.00    252.54    300.00     1.894     15.47    0.0    0.0
  JK-Pump-2               12.76           1      0.00    100.95    300.00     0.094      1.48    0.0    0.0
  XR-Pump-1               97.86           1      0.00     94.82     95.00     2.593     54.55    0.0    0.0
  XR-Pump-2               72.34           3      0.00     89.38     95.00     1.824     40.98    0.0    0.0
  XR-Pump-3               80.85           2      0.00     90.29     95.00     2.052     44.48    0.0    0.0
  XR-Pump-4               95.73           1      0.00     94.29     95.00     2.536     53.88    0.0    0.0
  

  Analysis begun on:  Thu Jan  6 00:18:37 2022
  Analysis ended on:  Thu Jan  6 00:18:39 2022
  Total elapsed time: 00:00:02