
  EPA STORM WATER MANAGEMENT MODEL - VERSION 5.1 (Build 5.3.0.dev0)
  --------------------------------------------------------------

  WARNING 04: minimum elevation drop used for Conduit WS02004404WS02004405
  WARNING 03: negative offset ignored for Link YS02001904YS02001907
  
  *********************************************************
  NOTE: The summary statistics displayed in this report are
  based on results found at every computational time step,  
  not just on results from each reporting time step.
  *********************************************************
  
  ****************
  Analysis Options
  ****************
  Flow Units ............... LPS
  Process Models:
    Rainfall/Runoff ........ YES
    RDII ................... NO
    Snowmelt ............... NO
    Groundwater ............ NO
    Flow Routing ........... YES
    Ponding Allowed ........ NO
    Water Quality .......... NO
  Infiltration Method ...... HORTON
  Flow Routing Method ...... DYNWAVE
  Surcharge Method ......... EXTRAN
  Starting Date ............ 08/28/2015 08:00:00
  Ending Date .............. 08/28/2015 15:50:00
  Antecedent Dry Days ...... 8.0
  Report Time Step ......... 00:01:00
  Wet Time Step ............ 00:01:00
  Dry Time Step ............ 00:01:00
  Routing Time Step ........ 5.00 sec
  Variable Time Step ....... YES
  Maximum Trials ........... 8
  Number of Threads ........ 4
  Head Tolerance ........... 0.001500 m
  
  
  **************************        Volume         Depth
  Runoff Quantity Continuity     hectare-m            mm
  **************************     ---------       -------
  Total Precipitation ......         2.730         5.977
  Evaporation Loss .........         0.000         0.000
  Infiltration Loss ........         0.686         1.502
  Surface Runoff ...........         1.157         2.533
  Final Storage ............         0.888         1.943
  Continuity Error (%) .....        -0.018
  
  
  **************************        Volume        Volume
  Flow Routing Continuity        hectare-m      10^6 ltr
  **************************     ---------     ---------
  Dry Weather Inflow .......         0.616         6.165
  Wet Weather Inflow .......         1.156        11.561
  Groundwater Inflow .......         0.000         0.000
  RDII Inflow ..............         0.000         0.000
  External Inflow ..........         0.102         1.024
  External Outflow .........         1.618        16.182
  Flooding Loss ............         0.143         1.429
  Evaporation Loss .........         0.000         0.000
  Exfiltration Loss ........         0.000         0.000
  Initial Stored Volume ....         0.076         0.761
  Final Stored Volume ......         0.348         3.484
  Continuity Error (%) .....        -8.131
  
  
  *************************
  Highest Continuity Errors
  *************************
  Node HS02004842 (28.20%)
  Node YS02001884 (22.63%)
  Node YS02001774 (11.34%)
  Node YSB1171 (6.87%)
  Node HS02004901 (5.42%)
  
  
  ***************************
  Time-Step Critical Elements
  ***************************
  Link WS02006252WS02006251 (91.71%)
  Link WS02006280WS02006229 (2.36%)
  Link 3 (1.98%)
  
  
  ********************************
  Highest Flow Instability Indexes
  ********************************
  Link WS02006113WS02006111 (49)
  Link WS02006111WS02006112 (27)
  Link YS02006558YS02006561 (13)
  Link YS02001644YS02001647 (5)
  Link YS02001641YS02001644 (5)
  
  
  *************************
  Routing Time Step Summary
  *************************
  Minimum Time Step           :     0.30 sec
  Average Time Step           :     0.89 sec
  Maximum Time Step           :     5.00 sec
  Percent in Steady State     :    -0.00
  Average Iterations per Step :     2.52
  Percent Not Converging      :     6.41
  
  
  ***************************
  Subcatchment Runoff Summary
  ***************************
  
  ------------------------------------------------------------------------------------------------------------------------------
                            Total      Total      Total      Total     Imperv       Perv      Total       Total     Peak  Runoff
                           Precip      Runon       Evap      Infil     Runoff     Runoff     Runoff      Runoff   Runoff   Coeff
  Subcatchment                 mm         mm         mm         mm         mm         mm         mm    10^6 ltr      LPS
  ------------------------------------------------------------------------------------------------------------------------------
  sub0                       5.98       0.00       0.00       0.42       4.29       0.00       4.29        0.00     1.44   0.718
  sub1                       5.98       0.00       0.00       0.66       4.06       0.00       4.06        0.03     7.56   0.680
  sub2                       5.98       0.00       0.00       2.21       2.86       0.00       2.86        0.03     6.69   0.478
  sub3                       5.98       0.00       0.00       2.21       2.82       0.00       2.82        0.06    13.77   0.473
  sub4                       5.98       0.00       0.00       0.66       3.93       0.00       3.93        0.08    15.47   0.657
  sub5                       5.98       0.00       0.00       0.42       4.25       0.00       4.25        0.05    13.44   0.711
  sub7                       5.98       0.00       0.00       0.54       4.18       0.00       4.18        0.01     4.74   0.700
  sub8                       5.98       0.00       0.00       0.54       4.18       0.00       4.18        0.03     8.36   0.699
  sub9                       5.98       0.00       0.00       0.54       4.17       0.00       4.17        0.02     6.20   0.698
  sub10                      5.98       0.00       0.00       0.48       4.21       0.00       4.21        0.05    13.42   0.704
  sub11                      5.98       0.00       0.00       0.48       4.22       0.00       4.22        0.05    15.74   0.707
  sub12                      5.98       0.00       0.00       0.78       4.01       0.00       4.01        0.04    13.33   0.671
  sub14                      5.98       0.00       0.00       0.54       4.17       0.00       4.17        0.04    12.12   0.698
  sub15                      5.98       0.00       0.00       1.79       3.21       0.00       3.21        0.06    16.44   0.536
  sub16                      5.98       0.00       0.00       1.97       3.09       0.00       3.09        0.03    11.72   0.516
  sub17                      5.98       0.00       0.00       1.91       3.13       0.00       3.13        0.03     9.46   0.524
  sub22                      5.98       0.00       0.00       2.57       2.62       0.00       2.62        0.17    53.85   0.438
  sub23                      5.98       0.00       0.00       2.21       2.90       0.00       2.90        0.14    45.85   0.484
  sub60                      5.98       0.00       0.00       0.72       2.82       0.00       2.82        0.86    79.65   0.472
  sub61                      5.98       0.00       0.00       1.02       3.02       0.00       3.02        0.93    99.61   0.505
  sub62                      5.98       0.00       0.00       0.48       3.23       0.00       3.23        0.99   101.90   0.541
  sub63                      5.98       0.00       0.00       1.73       2.69       0.00       2.69        0.81    92.85   0.450
  sub64                      5.98       0.00       0.00       0.90       2.70       0.00       2.70        0.82    75.64   0.451
  sub65                      5.98       0.00       0.00       0.78       2.73       0.00       2.73        0.84    76.74   0.457
  sub66                      5.98       0.00       0.00       1.73       2.35       0.00       2.35        0.72    69.31   0.394
  sub67                      5.98       0.00       0.00       0.48       3.56       0.00       3.56        1.10   130.42   0.595
  sub68                      5.98       0.00       0.00       0.84       3.21       0.00       3.21        0.99   110.04   0.537
  sub69                      5.98       0.00       0.00       0.90       3.46       0.00       3.46        0.81   108.95   0.580
  sub70                      5.98       3.54       0.00       3.23       4.25       0.00       4.25        0.97    88.31   0.447
  sub71                      5.98       0.00       0.00       0.48       3.09       0.00       3.09        0.73    71.22   0.518
  sub72                      5.98       0.00       0.00       0.42       2.18       0.00       2.18        0.44    33.53   0.365
  sub73                      5.98       4.14       0.00       3.44       4.33       0.00       4.33        1.02    75.82   0.428
  sub74                      5.98       0.00       0.00       4.48       1.04       0.00       1.04        0.42    60.72   0.175
  
  
  ******************
  Node Depth Summary
  ******************
  
  ---------------------------------------------------------------------------------
                                 Average  Maximum  Maximum  Time of Max    Reported
                                   Depth    Depth      HGL   Occurrence   Max Depth
  Node                 Type       Meters   Meters   Meters  days hr:min      Meters
  ---------------------------------------------------------------------------------
  WS02001211           JUNCTION     0.73     0.78     5.62     0  02:49        0.78
  WS02001212           JUNCTION     0.44     0.49     5.55     0  02:48        0.49
  WS02001213           JUNCTION     0.67     0.73     5.49     0  02:47        0.73
  WS02003069           JUNCTION     0.45     0.53     5.12     0  02:46        0.53
  WS02003072           JUNCTION     0.52     0.59     4.97     0  02:47        0.59
  WS02003073           JUNCTION     0.31     0.36     4.43     0  02:47        0.36
  WS02003060           JUNCTION     0.40     0.47     5.40     0  02:45        0.47
  WS02003066           JUNCTION     0.21     0.26     5.82     0  02:44        0.26
  WS02003059           JUNCTION     0.72     0.78     5.47     0  02:47        0.78
  WS02003067           JUNCTION     0.53     0.64     5.96     0  02:44        0.64
  WS02004401           JUNCTION     0.61     0.75     6.75     0  02:39        0.75
  WS02004402           JUNCTION     0.64     0.78     6.74     0  02:39        0.78
  WS02004403           JUNCTION     0.67     0.80     6.73     0  02:39        0.80
  WS02004404           JUNCTION     0.74     0.87     6.72     0  02:39        0.87
  WS02004406           JUNCTION     0.75     0.88     6.71     0  02:40        0.88
  WS02004409           JUNCTION     0.43     0.57     6.34     0  02:42        0.57
  WS02004410           JUNCTION     0.45     0.59     6.31     0  02:43        0.59
  WS02004411           JUNCTION     0.47     0.60     6.28     0  02:43        0.60
  WS02004412           JUNCTION     0.49     0.61     6.25     0  02:43        0.61
  WS02004413           JUNCTION     0.65     0.78     6.25     0  02:43        0.78
  WS02004405           JUNCTION     0.74     0.87     6.72     0  02:40        0.87
  WS02006109           JUNCTION     0.68     0.83     7.45     0  02:34        0.83
  WS02006110           JUNCTION     0.69     0.82     7.40     0  02:35        0.82
  WS02006111           JUNCTION     0.19     0.25     6.96     0  02:35        0.25
  WS02006112           JUNCTION     0.77     0.93     6.81     0  02:38        0.93
  WS02006113           JUNCTION     0.30     0.39     7.28     0  02:35        0.39
  WS02006115           JUNCTION     0.50     0.64     6.78     0  02:39        0.64
  WS02006116           JUNCTION     0.58     0.72     6.76     0  02:39        0.72
  WS02006230           JUNCTION     0.61     0.80     7.55     0  03:12        0.80
  WS02006231           JUNCTION     0.40     0.52     7.65     0  03:13        0.52
  WS02006232           JUNCTION     0.53     0.66     7.70     0  03:14        0.66
  WS02006234           JUNCTION     0.44     0.58     7.74     0  03:15        0.58
  WS02006235           JUNCTION     0.47     0.61     7.78     0  03:15        0.61
  WS02006238           JUNCTION     0.49     0.64     7.78     0  03:15        0.64
  WS02006240           JUNCTION     0.41     0.53     7.82     0  03:15        0.53
  WS02006242           JUNCTION     0.48     0.58     7.85     0  03:16        0.58
  WS02006243           JUNCTION     0.36     0.45     7.87     0  03:16        0.45
  WS02006245           JUNCTION     0.36     0.43     7.91     0  03:15        0.43
  WS02006247           JUNCTION     0.39     0.45     7.95     0  02:35        0.45
  WS02006248           JUNCTION     0.34     0.40     7.98     0  02:34        0.40
  WS02006249           JUNCTION     0.38     0.44     8.04     0  02:31        0.44
  WS02006239           JUNCTION     0.45     0.59     7.80     0  03:15        0.59
  WS02006251           JUNCTION     0.37     0.43     8.10     0  02:28        0.43
  WS02006252           JUNCTION     0.32     0.35     8.59     0  02:22        0.35
  WS02006253           JUNCTION     0.39     0.46     8.10     0  02:28        0.46
  WS02006256           JUNCTION     0.77     1.19     8.12     0  00:30        1.19
  WS02004138           JUNCTION     0.18     0.19     7.44     0  01:20        0.19
  WS02004407           JUNCTION     0.20     0.26     6.57     0  02:40        0.26
  WS02006228           JUNCTION     0.67     0.84     7.49     0  02:34        0.84
  WS02006229           JUNCTION     0.63     0.82     7.51     0  02:34        0.82
  WS02006280           JUNCTION     0.05     0.15     8.42     0  02:18        0.15
  WS02006284           JUNCTION     0.35     0.48     8.88     0  02:18        0.48
  WS02006287           JUNCTION     0.08     0.21     9.17     0  02:18        0.21
  WSF200               JUNCTION     0.19     0.26     5.49     0  03:19        0.26
  HS02004901           JUNCTION     0.11     0.23    10.05     0  02:16        0.23
  HS02004881           JUNCTION     0.01     0.02     9.05     0  02:17        0.02
  HS02004876           JUNCTION     0.03     0.10     9.13     0  02:16        0.10
  HS02004870           JUNCTION     0.01     0.04     9.33     0  02:18        0.04
  HS02004862           JUNCTION     0.01     0.05     9.43     0  02:19        0.05
  HS02004856           JUNCTION     0.07     0.10     9.53     0  02:18        0.10
  HS02004852           JUNCTION     0.01     0.03     9.54     0  02:20        0.03
  HS02004848           JUNCTION     0.01     0.03     9.63     0  02:18        0.03
  HS02004842           JUNCTION     0.33     0.36     9.63     0  02:18        0.36
  HS02004837           JUNCTION     0.03     0.05     9.63     0  02:18        0.05
  HS02004830           JUNCTION     0.04     0.06     9.53     0  02:18        0.06
  HS02004824           JUNCTION     0.02     0.04     9.44     0  02:21        0.04
  HS02004817           JUNCTION     0.42     0.53     9.37     0  02:19        0.53
  HS02004807           JUNCTION     0.11     0.20     9.37     0  02:19        0.20
  HS02004802           JUNCTION     0.15     0.24     9.37     0  02:18        0.24
  HS02004799           JUNCTION     0.10     0.26     9.47     0  02:16        0.26
  HS02004792           JUNCTION     0.02     0.10     9.62     0  02:16        0.10
  HS02004788           JUNCTION     0.02     0.07     9.97     0  02:17        0.07
  HS02004785           JUNCTION     0.03     0.14    10.04     0  02:16        0.14
  HS02004777           JUNCTION     0.13     0.25    10.05     0  02:16        0.25
  HS02004770           JUNCTION     0.10     0.22    10.05     0  02:16        0.22
  HS02004480           JUNCTION     0.06     0.20     9.44     0  02:17        0.20
  HS02004479           JUNCTION     0.10     0.24     9.44     0  02:17        0.24
  HS02004478           JUNCTION     0.05     0.13     9.36     0  02:18        0.13
  YS02001745           JUNCTION     0.10     0.19     7.71     0  06:02        0.19
  YS02001748           JUNCTION     0.45     0.61     7.69     0  05:16        0.61
  YS02001751           JUNCTION     0.63     0.81     7.69     0  05:38        0.80
  YS02001754           JUNCTION     0.88     1.16     7.76     0  04:52        1.11
  YS02001762           JUNCTION     1.08     1.48     7.88     0  04:53        1.37
  YS02001765           JUNCTION     1.03     1.49     7.94     0  04:52        1.35
  YS02001767           JUNCTION     1.00     1.52     8.01     0  04:52        1.35
  YS02001770           JUNCTION     0.99     1.61     8.11     0  04:52        1.39
  YS02001774           JUNCTION     1.06     1.71     8.14     0  04:52        1.50
  YS02001779           JUNCTION     0.81     1.47     8.16     0  04:50        1.27
  YS02001882           JUNCTION     0.28     0.47     7.18     0  02:54        0.47
  YS02001884           JUNCTION     0.38     0.56     7.18     0  02:54        0.56
  YS02001759           JUNCTION     1.11     1.45     7.81     0  04:53        1.37
  YS02001887           JUNCTION     0.46     0.64     7.18     0  02:54        0.64
  YS02001890           JUNCTION     0.49     0.67     7.18     0  02:55        0.67
  YS02001898           JUNCTION     0.26     0.43     7.16     0  02:55        0.43
  YS02001901           JUNCTION     0.37     0.55     7.16     0  02:55        0.55
  YS02001904           JUNCTION     0.35     0.53     7.16     0  02:56        0.53
  YS02001907           JUNCTION     0.68     0.87     7.16     0  02:55        0.87
  YS02001910           JUNCTION     0.47     0.66     7.16     0  02:55        0.66
  YS02001915           JUNCTION     0.27     0.44     7.16     0  02:56        0.44
  YS02001918           JUNCTION     0.08     0.10     7.16     0  03:03        0.10
  YS02001619           JUNCTION     0.59     0.75     7.68     0  05:15        0.75
  YS02001629           JUNCTION     0.94     1.14     7.69     0  04:47        1.13
  YS02001641           JUNCTION     1.05     1.33     7.77     0  05:25        1.31
  YS02001644           JUNCTION     1.05     1.34     7.77     0  05:25        1.32
  YS02001652           JUNCTION     0.90     1.14     7.74     0  04:19        1.12
  YS02001655           JUNCTION     0.66     0.85     7.70     0  04:50        0.84
  YS02001920           JUNCTION     0.17     0.21     7.22     0  03:02        0.21
  YS02001923           JUNCTION     0.06     0.09     7.35     0  03:02        0.09
  YS02001926           JUNCTION     0.14     0.18     7.62     0  03:01        0.18
  YS02001929           JUNCTION     0.07     0.09     7.78     0  03:01        0.09
  YS02001658           JUNCTION     0.39     0.55     7.69     0  05:20        0.54
  YS02001661           JUNCTION     0.19     0.29     7.70     0  04:43        0.29
  YS02001664           JUNCTION     0.07     0.12     8.04     0  02:46        0.12
  YS02001622           JUNCTION     0.61     0.78     7.68     0  05:24        0.77
  YS02001633           JUNCTION     1.03     1.27     7.72     0  05:25        1.26
  YS02001649           JUNCTION     1.09     1.34     7.73     0  05:25        1.32
  YS02001757           JUNCTION     1.21     1.49     7.75     0  04:53        1.45
  YS02001895           JUNCTION     0.25     0.43     7.17     0  02:55        0.43
  YS02001625           JUNCTION     0.89     1.09     7.69     0  05:38        1.08
  YS02163301           JUNCTION     0.97     1.18     7.70     0  05:25        1.17
  YS02163601           JUNCTION     1.09     1.35     7.75     0  05:25        1.34
  YS02164001           JUNCTION     1.03     1.30     7.76     0  05:25        1.29
  YS02001647           JUNCTION     0.88     1.16     7.77     0  05:25        1.14
  YSB1154              JUNCTION     0.24     0.39     9.44     0  02:17        0.39
  YSB6556              JUNCTION     0.13     0.27     9.44     0  02:17        0.27
  YSB1174              JUNCTION     0.19     0.33     9.44     0  02:17        0.33
  YSB1171              JUNCTION     0.39     0.54     9.44     0  02:16        0.54
  YS02006553           JUNCTION     0.69     0.88     7.16     0  02:55        0.88
  YS02006561           JUNCTION     0.14     0.23     6.89     0  02:56        0.23
  YS02006556           JUNCTION     0.66     0.85     7.16     0  02:56        0.85
  YS02006558           JUNCTION     0.70     0.89     7.16     0  02:56        0.89
  YS02001783           JUNCTION     0.40     0.67     6.81     0  02:40        0.66
  YS02001784           JUNCTION     0.46     0.74     6.80     0  02:40        0.72
  YS02001786           JUNCTION     0.46     0.73     6.76     0  02:40        0.68
  YS02001788           JUNCTION     0.47     0.76     6.74     0  02:40        0.73
  YS02001790           JUNCTION     0.72     1.96     7.60     0  02:37        1.03
  YS02001791           JUNCTION     0.82     2.63     8.10     0  02:36        1.16
  YS02001793           JUNCTION     1.30     2.47     7.30     0  02:34        1.78
  WS02004139           JUNCTION     0.68     0.73     5.64     0  02:49        0.73
  WSC                  OUTFALL      0.31     0.36     1.03     0  02:48        0.36
  3                    OUTFALL      0.03     0.19     6.19     0  00:30        0.19
  4                    OUTFALL      0.00     0.00     7.00     0  00:00        0.00
  5                    OUTFALL      0.00     0.00     5.00     0  00:00        0.00
  JK-storage           STORAGE      4.92     5.80     6.60     0  02:38        5.80
  CC-storage           STORAGE      0.46     0.66     7.66     0  05:29        0.66
  XR-storage           STORAGE      1.11     5.10     3.10     0  00:21        5.10
  
  
  *******************
  Node Inflow Summary
  *******************
  
  -------------------------------------------------------------------------------------------------
                                  Maximum  Maximum                  Lateral       Total        Flow
                                  Lateral    Total  Time of Max      Inflow      Inflow     Balance
                                   Inflow   Inflow   Occurrence      Volume      Volume       Error
  Node                 Type           LPS      LPS  days hr:min    10^6 ltr    10^6 ltr     Percent
  -------------------------------------------------------------------------------------------------
  WS02001211           JUNCTION      7.35   388.17     0  04:43       0.207         9.4       0.450
  WS02001212           JUNCTION      0.00   388.76     0  04:43           0        9.36       0.252
  WS02001213           JUNCTION      0.00   389.36     0  04:42           0        9.34       0.270
  WS02003069           JUNCTION      0.32   804.40     0  02:46     0.00902        15.2       0.205
  WS02003072           JUNCTION      0.00   804.39     0  02:46           0        15.2       0.249
  WS02003073           JUNCTION      1.82   806.22     0  02:47      0.0514        15.2       0.282
  WS02003060           JUNCTION     16.53   804.05     0  02:45       0.466        15.3       0.193
  WS02003066           JUNCTION      0.00   402.06     0  02:44           0        5.54       0.068
  WS02003059           JUNCTION      0.00   390.38     0  04:42           0        9.31       0.450
  WS02003067           JUNCTION      0.00   402.04     0  02:44           0        5.55       0.147
  WS02004401           JUNCTION      0.00   405.96     0  02:37           0        5.75       0.329
  WS02004402           JUNCTION      0.00   405.31     0  02:38           0        5.73       0.314
  WS02004403           JUNCTION      0.00   404.96     0  02:39           0        5.72       0.290
  WS02004404           JUNCTION      0.16   404.95     0  02:39     0.00457         5.7       0.223
  WS02004406           JUNCTION      0.00   404.88     0  02:39           0        5.67       0.544
  WS02004409           JUNCTION      0.00   404.83     0  02:40           0        5.64       0.234
  WS02004410           JUNCTION      0.00   403.67     0  02:41           0        5.62       0.270
  WS02004411           JUNCTION      0.00   402.82     0  02:42           0        5.61       0.282
  WS02004412           JUNCTION      0.00   402.36     0  02:42           0        5.59       0.312
  WS02004413           JUNCTION      0.00   402.14     0  02:43           0        5.58       0.474
  WS02004405           JUNCTION      0.04   404.93     0  02:39     0.00107        5.69       0.334
  WS02006109           JUNCTION      1.23   405.79     0  02:34      0.0347        5.84       0.349
  WS02006110           JUNCTION      0.00   405.81     0  02:34           0        5.82       0.322
  WS02006111           JUNCTION      0.00   415.09     0  02:35           0        5.79       0.064
  WS02006112           JUNCTION      9.46   411.66     0  02:35      0.0268        5.81       0.464
  WS02006113           JUNCTION      0.00   405.79     0  02:35           0         5.8       0.135
  WS02006115           JUNCTION      0.00   409.01     0  02:36           0        5.79       0.295
  WS02006116           JUNCTION      0.00   407.08     0  02:37           0        5.77       0.276
  WS02006230           JUNCTION     10.28   326.84     0  03:20        0.29        4.92       0.235
  WS02006231           JUNCTION      0.00   316.13     0  03:20           0        4.64       0.134
  WS02006232           JUNCTION      0.00   315.92     0  03:20           0        4.65       0.306
  WS02006234           JUNCTION      0.00   315.66     0  03:20           0        4.66       0.150
  WS02006235           JUNCTION      0.00   315.53     0  03:20           0        4.69       0.171
  WS02006238           JUNCTION      0.00   231.67     0  02:39           0        4.08       0.152
  WS02006240           JUNCTION      0.00   231.67     0  02:35           0        4.08       0.260
  WS02006242           JUNCTION      0.00   233.30     0  02:30           0        4.08       0.316
  WS02006243           JUNCTION      0.00   234.66     0  02:28           0        4.08       0.178
  WS02006245           JUNCTION      0.00   235.57     0  02:28           0        4.09       0.209
  WS02006247           JUNCTION      0.00   236.31     0  02:27           0        4.09       0.161
  WS02006248           JUNCTION      0.00   236.83     0  02:27           0         4.1       0.107
  WS02006249           JUNCTION      0.00   237.46     0  02:26           0        4.11       0.236
  WS02006239           JUNCTION      0.00   231.47     0  02:38           0        4.08       0.177
  WS02006251           JUNCTION      0.08   238.79     0  02:24     0.00217        4.11       0.213
  WS02006252           JUNCTION      0.00   200.00     0  02:22           0        3.97       0.011
  WS02006253           JUNCTION      1.44    42.03     0  02:17     0.00347       0.151       2.456
  WS02006256           JUNCTION      0.00   600.00     0  00:30           0        1.63       0.123
  WS02004138           JUNCTION      0.00   380.00     0  01:20           0        9.23       0.057
  WS02004407           JUNCTION      0.00   404.85     0  02:40           0        5.64       0.108
  WS02006228           JUNCTION      0.00   404.58     0  02:34           0        5.82       0.232
  WS02006229           JUNCTION      0.00   404.58     0  02:34           0        5.83       0.216
  WS02006280           JUNCTION      0.00   215.23     0  02:18           0        0.92       0.007
  WS02006284           JUNCTION      0.10   215.22     0  02:18      0.0027       0.921       0.116
  WS02006287           JUNCTION      0.00   215.11     0  02:18           0       0.919       0.079
  WSF200               JUNCTION      0.00   402.05     0  02:44           0        5.54       0.062
  HS02004901           JUNCTION     11.72    11.72     0  02:10      0.0323      0.0324       5.728
  HS02004881           JUNCTION      4.74    40.92     0  02:17      0.0141       0.148       0.225
  HS02004876           JUNCTION      7.56    36.50     0  02:18       0.027       0.135       0.394
  HS02004870           JUNCTION      8.36    29.08     0  02:18      0.0267       0.108       0.099
  HS02004862           JUNCTION      6.89    21.26     0  02:18      0.0323      0.0813       0.208
  HS02004856           JUNCTION      6.20    14.42     0  02:17      0.0201      0.0505       2.937
  HS02004852           JUNCTION      0.00     8.60     0  02:18           0      0.0305       0.167
  HS02004848           JUNCTION     13.77    13.77     0  02:21      0.0636      0.0636       0.069
  HS02004842           JUNCTION      0.00     5.64     0  02:31           0      0.0461      39.277
  HS02004837           JUNCTION     19.77    24.54     0  02:17       0.225       0.259       0.314
  HS02004830           JUNCTION      0.15    24.67     0  02:18     0.00423       0.249       0.497
  HS02004824           JUNCTION     15.52    40.00     0  02:21      0.0833       0.331       0.163
  HS02004817           JUNCTION      0.60    40.59     0  02:21      0.0169       0.347       5.040
  HS02004807           JUNCTION     15.74    54.93     0  02:20       0.049        0.38       1.125
  HS02004802           JUNCTION      0.00    55.25     0  02:21           0       0.375       1.094
  HS02004799           JUNCTION     12.12   136.60     0  02:15      0.0397       0.479       0.476
  HS02004792           JUNCTION     54.13   124.71     0  02:15       0.173        0.44       0.094
  HS02004788           JUNCTION     18.11    72.63     0  02:16       0.102       0.268       0.146
  HS02004785           JUNCTION      0.15    54.87     0  02:15     0.00423       0.168       0.289
  HS02004777           JUNCTION      0.03    55.20     0  02:14    0.000846       0.168       3.181
  HS02004770           JUNCTION     45.85    56.33     0  02:12       0.138       0.169       1.870
  HS02004480           JUNCTION      0.00   161.09     0  02:17           0       0.559       0.131
  HS02004479           JUNCTION      0.00    24.97     0  02:18           0      0.0926       0.794
  HS02004478           JUNCTION      0.00   215.10     0  02:18           0        0.92       0.068
  YS02001745           JUNCTION     79.65    79.65     0  03:01       0.855       0.861       0.115
  YS02001748           JUNCTION      0.04    99.43     0  04:14     0.00127       0.877       0.822
  YS02001751           JUNCTION      0.01   141.31     0  04:15     0.00031       0.867       1.822
  YS02001754           JUNCTION      0.26   126.70     0  04:07     0.00733       0.845       2.423
  YS02001762           JUNCTION      0.00   117.15     0  02:40           0       0.936       2.260
  YS02001765           JUNCTION      0.00   118.40     0  02:37           0       0.937       2.559
  YS02001767           JUNCTION      0.54   122.43     0  02:56      0.0151       0.956       3.636
  YS02001770           JUNCTION    102.05   125.52     0  02:55       0.998        1.09       2.587
  YS02001774           JUNCTION      0.00    50.92     0  04:49           0       0.219      12.788
  YS02001779           JUNCTION      0.01    51.07     0  04:49    0.000141       0.102      12.829
  YS02001882           JUNCTION      0.00     4.20     0  02:10           0     0.00544      45.187
  YS02001884           JUNCTION      0.00    11.86     0  02:07           0      0.0217      29.244
  YS02001759           JUNCTION     99.65   211.27     0  02:57       0.931        1.83       1.244
  YS02001887           JUNCTION    130.87   130.87     0  02:44        1.11        1.12       0.646
  YS02001890           JUNCTION      0.00   130.31     0  02:46           0         1.1       0.724
  YS02001898           JUNCTION      0.00   129.79     0  02:47           0        1.08       0.206
  YS02001901           JUNCTION      0.00   129.58     0  02:48           0        1.08       0.515
  YS02001904           JUNCTION      0.00   128.97     0  02:48           0        1.08       0.479
  YS02001907           JUNCTION      0.00   235.14     0  02:57           0        2.32       0.962
  YS02001910           JUNCTION      0.00   107.89     0  03:01           0        1.25       0.824
  YS02001915           JUNCTION     71.24   107.34     0  03:01       0.731        1.25       0.368
  YS02001918           JUNCTION      0.00    36.38     0  03:02           0       0.523       0.220
  YS02001619           JUNCTION     69.31    69.31     0  03:01       0.721       0.721       1.000
  YS02001629           JUNCTION      0.00    93.85     0  04:47           0       0.666       3.103
  YS02001641           JUNCTION      0.00   156.05     0  03:05           0        1.42       1.479
  YS02001644           JUNCTION     75.68   233.08     0  03:05        0.82        2.21       1.184
  YS02001652           JUNCTION      0.00   124.07     0  02:59           0       0.797       2.565
  YS02001655           JUNCTION      0.15   129.62     0  03:33     0.00434       0.832       2.067
  YS02001920           JUNCTION      2.87    36.40     0  03:02      0.0809       0.525       0.395
  YS02001923           JUNCTION      0.04    33.53     0  03:01     0.00106       0.445       0.069
  YS02001926           JUNCTION      0.05    33.57     0  03:01     0.00147       0.446       0.494
  YS02001929           JUNCTION     33.53    33.53     0  03:01       0.445       0.445       0.067
  YS02001658           JUNCTION      0.00   139.40     0  04:43           0       0.873       0.868
  YS02001661           JUNCTION      0.00    92.85     0  02:46           0       0.854       0.090
  YS02001664           JUNCTION     92.85    92.85     0  02:46       0.813       0.813       0.017
  YS02001622           JUNCTION      0.00    82.19     0  02:51           0       0.722       2.874
  YS02001633           JUNCTION     76.94   158.81     0  03:03       0.844        1.47       2.159
  YS02001649           JUNCTION      0.00   320.17     0  03:05           0        2.91       1.266
  YS02001757           JUNCTION      0.00   579.71     0  02:59           0        5.47       1.704
  YS02001895           JUNCTION      0.00   129.88     0  02:47           0        1.09       0.347
  YS02001625           JUNCTION      0.00    92.49     0  04:36           0       0.706       5.238
  YS02163301           JUNCTION      0.00    96.21     0  03:06           0       0.651       3.671
  YS02163601           JUNCTION      0.11   151.16     0  02:46      0.0031        1.43       2.115
  YS02164001           JUNCTION      0.00   150.21     0  02:54           0        1.41       1.364
  YS02001647           JUNCTION      0.00   234.37     0  03:05           0        2.17       1.136
  YSB1154              JUNCTION     13.44    13.44     0  02:15      0.0481      0.0494       3.008
  YSB6556              JUNCTION      0.00    13.43     0  02:17           0      0.0504       2.533
  YSB1174              JUNCTION     13.33    13.33     0  02:09       0.035      0.0361       3.689
  YSB1171              JUNCTION      0.00    24.94     0  02:16           0      0.0921       7.373
  YS02006553           JUNCTION      0.00   235.32     0  03:02           0        2.31       0.624
  YS02006561           JUNCTION      0.00   348.94     0  02:56           0        3.27       0.019
  YS02006556           JUNCTION      0.00   235.67     0  03:02           0        2.31       0.450
  YS02006558           JUNCTION    110.92   344.98     0  02:56        1.01         3.3       0.138
  YS02001783           JUNCTION      0.00   344.96     0  02:56           0        3.27       0.221
  YS02001784           JUNCTION      1.06   407.44     0  02:40      0.0299        3.29       0.323
  YS02001786           JUNCTION      0.06   399.37     0  02:41     0.00159        3.28       0.414
  YS02001788           JUNCTION      0.07   424.89     0  02:41       0.002        3.27       0.424
  YS02001790           JUNCTION      0.15   400.46     0  02:41     0.00437        3.26       0.521
  YS02001791           JUNCTION      0.00   400.61     0  02:41           0        3.24       0.440
  YS02001793           JUNCTION      0.00   452.53     0  02:34           0        3.24       0.507
  WS02004139           JUNCTION      0.32   380.37     0  01:20     0.00905        9.24       0.466
  WSC                  OUTFALL       0.00   806.22     0  02:48           0        15.2       0.000
  3                    OUTFALL       0.00   446.15     0  00:30           0       0.994       0.000
  4                    OUTFALL       0.00     0.00     0  00:00           0           0       0.000 ltr
  5                    OUTFALL       0.00     0.00     0  00:00           0           0       0.000 ltr
  JK-storage           STORAGE       0.00   725.30     0  04:04           0        3.37       0.476
  CC-storage           STORAGE       0.00   579.76     0  02:59           0        5.38       0.562
  XR-storage           STORAGE     328.89   328.89     0  02:57        7.07        7.67     -16.887
  
  
  **********************
  Node Surcharge Summary
  **********************
  
  Surcharging occurs when water rises above the top of the highest conduit.
  ---------------------------------------------------------------------
                                               Max. Height   Min. Depth
                                   Hours       Above Crown    Below Rim
  Node                 Type      Surcharged         Meters       Meters
  ---------------------------------------------------------------------
  WS02006109           JUNCTION        0.14          0.008        1.812
  WS02006228           JUNCTION        0.11          0.006        2.194
  YS02001754           JUNCTION        0.65          0.106        1.044
  YS02001762           JUNCTION        5.15          0.479        0.671
  YS02001765           JUNCTION        5.04          0.489        0.611
  YS02001767           JUNCTION        4.63          0.521        0.509
  YS02001770           JUNCTION        3.91          0.582        0.338
  YS02001774           JUNCTION        5.12          0.713        0.337
  YS02001779           JUNCTION        0.31          0.472        0.208
  YS02001759           JUNCTION        5.21          0.450        0.760
  YS02001641           JUNCTION        5.09          0.332        0.768
  YS02001644           JUNCTION        5.10          0.343        0.577
  YS02001652           JUNCTION        1.94          0.112        1.018
  YS02001633           JUNCTION        4.98          0.249        0.811
  YS02001649           JUNCTION        5.17          0.341        0.709
  YS02001757           JUNCTION        5.34          0.485        0.725
  YS02001625           JUNCTION        2.56          0.089        0.691
  YS02163301           JUNCTION        4.12          0.185        0.845
  YS02163601           JUNCTION        5.17          0.351        0.729
  YS02164001           JUNCTION        5.04          0.303        0.797
  YS02001647           JUNCTION        2.40          0.164        0.736
  YS02001790           JUNCTION        3.89          1.157        0.000
  YS02001791           JUNCTION        4.08          1.832        0.088
  YS02001793           JUNCTION        4.37          1.466        1.134
  
  
  *********************
  Node Flooding Summary
  *********************
  
  Flooding refers to all water that overflows a node, whether it ponds or not.
  --------------------------------------------------------------------------
                                                             Total   Maximum
                                 Maximum   Time of Max       Flood    Ponded
                        Hours       Rate    Occurrence      Volume     Depth
  Node                 Flooded       LPS   days hr:min    10^6 ltr    Meters
  --------------------------------------------------------------------------
  YS02001790              0.01    106.33      0  02:37       0.000     0.000
  JK-storage              3.55    400.68      0  02:41       1.429     0.000
  
  
  **********************
  Storage Volume Summary
  **********************
  
  --------------------------------------------------------------------------------------------------
                         Average     Avg  Evap Exfil       Maximum     Max    Time of Max    Maximum
                          Volume    Pcnt  Pcnt  Pcnt        Volume    Pcnt     Occurrence    Outflow
  Storage Unit           1000 m3    Full  Loss  Loss       1000 m3    Full    days hr:min        LPS
  --------------------------------------------------------------------------------------------------
  JK-storage               0.247      85     0     0         0.291     100       0  02:38     600.00
  CC-storage               1.293       8     0     0         1.833      12       0  05:29     200.00
  XR-storage               0.133      14     0     0         0.612      66       0  00:21     380.00
  
  
  ***********************
  Outfall Loading Summary
  ***********************
  
  -----------------------------------------------------------
                         Flow       Avg       Max       Total
                         Freq      Flow      Flow      Volume
  Outfall Node           Pcnt       LPS       LPS    10^6 ltr
  -----------------------------------------------------------
  WSC                  100.00    608.89    806.22      15.188
  3                     25.33    183.43    446.15       0.994
  4                      0.00      0.00      0.00       0.000
  5                      0.00      0.00      0.00       0.000
  -----------------------------------------------------------
  System                31.33    792.32    876.58      16.182
  
  
  ********************
  Link Flow Summary
  ********************
  
  -----------------------------------------------------------------------------
                                 Maximum  Time of Max   Maximum    Max/    Max/
                                  |Flow|   Occurrence   |Veloc|    Full    Full
  Link                 Type          LPS  days hr:min     m/sec    Flow   Depth
  -----------------------------------------------------------------------------
  WS02003066WSF200     CONDUIT    402.05     0  02:44      2.68    0.07    0.20
  WS02006287WS02006284 CONDUIT    215.12     0  02:18      1.65    0.10    0.22
  WS02006284WS02006280 CONDUIT    215.23     0  02:18      1.89    0.09    0.20
  WS02006280WS02006229 CONDUIT    215.23     0  02:18      3.04    0.05    0.15
  WS02006229WS02006228 CONDUIT    404.58     0  02:34      0.80    1.34    1.00
  WS02006256WS02006235 CONDUIT    158.12     0  00:23      2.30    1.67    1.00
  WS02006253WS02006251 CONDUIT     42.20     0  02:17      0.50    0.13    0.63
  WS02006252WS02006251 CONDUIT    200.32     0  02:22      1.97    0.74    0.76
  WS02006251WS02006249 CONDUIT    237.46     0  02:26      0.98    0.68    0.62
  WS02006249WS02006248 CONDUIT    236.83     0  02:27      1.07    1.30    0.58
  WS02006248WS02006247 CONDUIT    236.31     0  02:27      1.04    0.51    0.60
  WS02006247WS02006245 CONDUIT    235.57     0  02:28      1.01    1.87    0.62
  WS02006245WS02006243 CONDUIT    234.66     0  02:28      1.11    0.69    0.62
  WS02006243WS02006242 CONDUIT    233.30     0  02:30      0.97    0.50    0.72
  WS02006242WS02006240 CONDUIT    231.67     0  02:35      0.88    0.92    0.78
  WS02006240WS02006239 CONDUIT    231.47     0  02:38      1.00    0.73    0.77
  WS02006239WS02006238 CONDUIT    231.67     0  02:39      0.84    0.74    0.86
  WS02006238WS02006235 CONDUIT    235.77     0  04:30      0.91    0.53    0.89
  WS02006235WS02006234 CONDUIT    315.66     0  03:20      0.94    3.33    0.83
  WS02006234WS02006232 CONDUIT    315.92     0  03:20      1.02    0.64    0.89
  WS02006232WS02006231 CONDUIT    316.13     0  03:20      0.94    0.66    0.84
  WS02006231WS02006230 CONDUIT    316.56     0  03:20      1.29    4.80    0.68
  WS02006230WS02006229 CONDUIT    327.62     0  03:19      0.85    7.29    1.00
  WS02006228WS02006109 CONDUIT    404.56     0  02:34      0.80    1.77    1.00
  WS02006116WS02004401 CONDUIT    405.96     0  02:37      0.77    0.56    0.73
  WS02006115WS02006116 CONDUIT    407.08     0  02:37      0.81    0.52    0.65
  WS02006113WS02006111 CONDUIT    415.09     0  02:35      2.23    0.50    0.40
  WS02006112WS02006115 CONDUIT    409.01     0  02:36      0.64    0.24    0.78
  WS02006111WS02006112 CONDUIT    406.59     0  02:35      1.29    0.19    0.65
  WS02006110WS02006113 CONDUIT    405.79     0  02:35      1.01    0.37    0.74
  WS02006109WS02006110 CONDUIT    405.81     0  02:34      0.83    0.78    0.94
  WS02004411WS02004412 CONDUIT    402.36     0  02:42      0.81    0.57    0.61
  WS02004401WS02004402 CONDUIT    405.31     0  02:38      0.80    0.49    0.76
  WS02004413WS02003067 CONDUIT    402.04     0  02:44      0.95    0.17    0.53
  WS02004412WS02004413 CONDUIT    402.14     0  02:43      0.69    0.27    0.70
  WS02004410WS02004411 CONDUIT    402.82     0  02:42      0.83    0.55    0.59
  WS02004409WS02004410 CONDUIT    403.67     0  02:41      0.87    0.52    0.58
  WS02004407WS02004409 CONDUIT    404.83     0  02:40      1.35    0.14    0.41
  WS02004406WS02004407 CONDUIT    404.85     0  02:40      0.88    0.18    0.57
  WS02004405WS02004406 CONDUIT    404.88     0  02:39      0.62    0.80    0.87
  WS02004404WS02004405 CONDUIT    404.90     0  02:39      0.88    3.97    0.87
  WS02004403WS02004404 CONDUIT    404.79     0  02:39      0.75    0.29    0.84
  WS02004402WS02004403 CONDUIT    404.96     0  02:39      0.79    0.58    0.79
  WS02004139WS02001211 CONDUIT    380.83     0  04:43      0.69    0.48    0.59
  WS02004138WS02004139 CONDUIT    380.05     0  01:20      2.95    0.08    0.43
  WS02003067WS02003066 CONDUIT    402.06     0  02:44      1.02    0.13    0.38
  WS02001213WS02003059 CONDUIT    390.38     0  04:42      0.68    0.64    0.74
  WS02001212WS02001213 CONDUIT    389.36     0  04:42      1.32    0.60    0.45
  WS02001211WS02001212 CONDUIT    388.76     0  04:43      0.78    0.30    0.63
  WS02003072WS02003073 CONDUIT    804.40     0  02:47      1.63    1.74    0.45
  WS02003069WS02003072 CONDUIT    804.39     0  02:46      1.54    0.39    0.47
  WS02003060WS02003069 CONDUIT    804.08     0  02:46      1.80    0.31    0.42
  WS02003059WS02003060 CONDUIT    391.82     0  04:42      0.95    0.26    0.62
  HS02004901HS02004770 CONDUIT     10.82     0  02:15      0.05    0.04    0.32
  HS02004876HS02004881 CONDUIT     36.57     0  02:18      0.58    0.39    0.09
  HS02004870HS02004876 CONDUIT     29.06     0  02:18      0.41    0.02    0.10
  HS02004842HS02004848 CONDUIT      5.64     0  02:31      0.03    0.00    0.28
  HS02004837HS02004842 CONDUIT      5.83     0  02:31      0.42    0.00    0.29
  HS02004830HS02004837 CONDUIT     24.52     0  02:18      0.45    0.02    0.08
  HS02004824HS02004830 CONDUIT     24.67     0  02:19      0.49    0.03    0.07
  HS02004817HS02004824 CONDUIT     39.99     0  02:21      0.17    0.02    0.40
  HS02004770HS02004777 CONDUIT     55.17     0  02:14      0.23    0.10    0.34
  HS02004799HS02004480 CONDUIT    136.37     0  02:16      0.61    0.17    0.32
  HS02004792HS02004799 CONDUIT    124.66     0  02:16      0.70    0.08    0.25
  HS02004788HS02004792 CONDUIT     72.57     0  02:17      0.85    0.05    0.12
  HS02004785HS02004788 CONDUIT     54.77     0  02:16      0.53    0.41    0.15
  HS02004777HS02004785 CONDUIT     54.72     0  02:15      0.28    0.07    0.28
  HS02004480HS02004478 CONDUIT    161.03     0  02:17      0.98    0.68    0.23
  HS02004479HS02004480 CONDUIT     25.21     0  02:19      0.15    0.02    0.31
  HS02004862HS02004870 CONDUIT     21.22     0  02:19      0.48    0.02    0.06
  HS02004848HS02004852 CONDUIT      8.60     0  02:18      0.32    0.01    0.04
  HS02004856HS02004862 CONDUIT     14.39     0  02:18      0.35    0.01    0.06
  HS02004852HS02004856 CONDUIT      8.57     0  02:20      0.13    0.01    0.09
  HS02004802HS02004478 CONDUIT     55.65     0  02:22      0.31    0.05    0.26
  HS02004478WS02006287 CONDUIT    215.11     0  02:18      1.34    0.06    0.18
  HS02004817HS02004807 CONDUIT     41.18     0  02:23      0.11    0.02    0.52
  HS02004807HS02004802 CONDUIT     55.25     0  02:21      0.26    0.11    0.31
  YS02001759YS02001757 CONDUIT    213.19     0  02:48      0.27    0.15    1.00
  YS02001762YS02001759 CONDUIT    112.16     0  02:57      0.18    0.13    1.00
  YS02001765YS02001762 CONDUIT    117.15     0  02:40      0.23    0.11    1.00
  YS02001770YS02001767 CONDUIT    121.90     0  02:56      0.32    0.48    1.00
  YS02001774YS02001770 CONDUIT     50.92     0  04:49      0.15    0.03    1.00
  YS02001779YS02001774 CONDUIT     51.06     0  04:49      0.07    0.03    1.00
  YS02001649YS02001757 CONDUIT    322.06     0  02:58      0.41    0.20    1.00
  YS02001767YS02001765 CONDUIT    118.40     0  02:37      0.26    0.15    1.00
  YS02006561YS02001783 CONDUIT    344.96     0  02:56      1.80    0.18    0.56
  YS02001783YS02001784 CONDUIT    406.38     0  02:40      1.25    0.56    0.84
  YS02001784YS02001785 CONDUIT    399.31     0  02:41      1.32    0.93    0.91
  YS02001788YS02001790 CONDUIT    400.30     0  02:41      1.87    0.30    0.98
  YS02001790YS02001791 CONDUIT    400.61     0  02:41      2.20    0.44    1.00
  YS02001791YS02001793 CONDUIT    452.53     0  02:34      4.30    0.19    1.00
  YS02001910YS02001907 CONDUIT    108.01     0  03:01      0.50    0.06    0.76
  YS02001786YS02001788 CONDUIT    424.82     0  02:41      1.78    0.82    0.92
  YS02001915YS02001910 CONDUIT    107.89     0  03:01      0.44    0.05    0.55
  YS02001918YS02001915 CONDUIT     36.35     0  03:03      0.44    0.02    0.27
  YS02001923YS02001920 CONDUIT     33.53     0  03:02      0.47    0.02    0.15
  YS02001926YS02001923 CONDUIT     33.50     0  03:01      0.51    0.05    0.14
  YS02001929YS02001926 CONDUIT     33.52     0  03:01      0.54    0.02    0.13
  YS02001920YS02001918 CONDUIT     36.38     0  03:02      0.48    0.04    0.15
  YS02001629YS02163301 CONDUIT     96.21     0  03:06      0.12    0.12    1.00
  YS02001619YS02001622 CONDUIT     82.19     0  02:51      0.66    0.12    0.76
  YS02001622YS02001625 CONDUIT     92.49     0  04:36      0.25    0.05    0.89
  YS02001625YS02001629 CONDUIT     93.85     0  04:47      0.25    0.04    0.88
  YS02163301YS02001633 CONDUIT     83.43     0  03:03      0.11    0.08    1.00
  YS02163601YS02164001 CONDUIT    150.21     0  02:54      0.19    0.13    1.00
  YS02164001YS02001641 CONDUIT    156.05     0  03:05      0.20    0.21    1.00
  YS02001641YS02001644 CONDUIT    159.89     0  03:05      0.20    0.52    1.00
  YS02001647YS02001649 CONDUIT    244.02     0  03:03      0.32    0.13    1.00
  YS02006553YS02006556 CONDUIT    235.67     0  03:02      0.33    0.20    0.84
  YS02006556YS02006558 CONDUIT    235.91     0  03:03      0.33    0.19    0.87
  YSB6556YSB1171       CONDUIT     13.64     0  02:19      0.06    0.01    0.58
  YS02001907YS02006553 CONDUIT    235.32     0  03:02      0.27    0.28    0.96
  YS02006558YS02006561 CONDUIT    348.94     0  02:56      2.38    0.77    0.52
  YS02001633YS02163601 CONDUIT    151.05     0  02:46      0.19    0.16    1.00
  YS02001644YS02001647 CONDUIT    234.37     0  03:05      0.31    0.14    1.00
  YS02001745YS02001748 CONDUIT     96.22     0  04:53      1.43    0.04    0.35
  YS02001748YS02001751 CONDUIT    141.30     0  04:15      1.10    0.07    0.70
  YS02001751YS02001754 CONDUIT    124.42     0  04:26      0.97    0.06    0.90
  YS02001754YS02001757 CONDUIT    107.73     0  03:53      0.33    0.04    1.00
  YS02001882YS02001884 CONDUIT      4.20     0  02:10      0.06    0.00    0.48
  YS02001884YS02001887 CONDUIT     11.86     0  02:07      0.06    0.02    0.58
  YS02001890YS02001895 CONDUIT    129.88     0  02:47      0.30    0.06    0.55
  YS02001895YS02001898 CONDUIT    129.79     0  02:47      0.49    0.23    0.41
  YS02001898YS02001901 CONDUIT    129.58     0  02:48      0.34    0.08    0.49
  YS02001901YS02001904 CONDUIT    128.97     0  02:48      0.30    0.20    0.54
  YS02001904YS02001907 CONDUIT    129.13     0  02:50      0.22    0.05    0.70
  YS02001887YS02001890 CONDUIT    130.31     0  02:46      0.25    0.22    0.63
  YS02001652YS02001649 CONDUIT    133.65     0  02:38      0.33    0.07    1.00
  YS02001655YS02001652 CONDUIT    124.07     0  02:59      1.05    0.06    0.93
  YS02001658YS02001655 CONDUIT    129.47     0  03:33      1.27    0.05    0.69
  YS02001661YS02001658 CONDUIT    139.40     0  04:43      1.48    0.05    0.37
  YS02001664YS02001661 CONDUIT     92.85     0  02:46      1.16    0.03    0.18
  YSB1154YSB6556       CONDUIT     13.43     0  02:17      0.19    0.02    0.47
  YSB1174YSB1171       CONDUIT     12.37     0  02:11      0.06    0.02    0.59
  YSB1171HS02004479    CONDUIT     24.97     0  02:18      0.54    0.02    0.45
  HS02004881HS02006253 CONDUIT     40.92     0  02:18      1.70    0.01    0.10
  YS02001793JiankangQianchi CONDUIT    725.30     0  04:04      2.42    0.06    1.00
  YS02001757CaochengTiaoxuchi CONDUIT    579.76     0  02:59      1.23    0.25    0.83
  WSF200WS02003060     CONDUIT    402.13     0  02:44      1.55    0.09    0.30
  1                    CONDUIT    806.22     0  02:48      3.14    0.28    0.36
  2                    CONDUIT      0.00     0  00:00      0.00    0.00    0.00
  3                    CONDUIT    446.15     0  00:30      9.55    0.71    0.63
  4                    CONDUIT      0.00     0  00:00      0.00    0.00    0.00
  CC-Pump-1            PUMP         0.00     0  00:00              0.00
  CC-Pump-2            PUMP       200.00     0  02:22              1.00
  JK-Pump-1            PUMP       300.00     0  00:30              1.00
  JK-Pump-2            PUMP       300.00     0  00:30              1.00
  XR-Pump-1            PUMP        95.00     0  00:30              1.00
  XR-Pump-2            PUMP        95.00     0  00:00              1.00
  XR-Pump-3            PUMP        95.00     0  00:00              1.00
  XR-Pump-4            PUMP        95.00     0  00:30              1.00
  
  
  ***************************
  Flow Classification Summary
  ***************************
  
  -------------------------------------------------------------------------------------
                      Adjusted    ---------- Fraction of Time in Flow Class ---------- 
                       /Actual         Up    Down  Sub   Sup   Up    Down  Norm  Inlet 
  Conduit               Length    Dry  Dry   Dry   Crit  Crit  Crit  Crit  Ltd   Ctrl  
  -------------------------------------------------------------------------------------
  WS02003066WSF200        1.00   0.05  0.02  0.00  0.00  0.94  0.00  0.00  0.75  0.00
  WS02006287WS02006284    1.00   0.04  0.02  0.00  0.71  0.24  0.00  0.00  0.77  0.00
  WS02006284WS02006280    1.00   0.04  0.00  0.00  0.00  0.00  0.00  0.96  0.00  0.00
  WS02006280WS02006229    1.00   0.04  0.00  0.00  0.00  0.00  0.00  0.96  0.00  0.00
  WS02006229WS02006228    1.00   0.00  0.00  0.00  1.00  0.00  0.00  0.00  0.00  0.00
  WS02006256WS02006235    1.00   0.01  0.00  0.00  0.99  0.00  0.00  0.00  0.00  0.00
  WS02006253WS02006251    1.00   0.01  0.03  0.00  0.96  0.00  0.00  0.00  0.00  0.00
  WS02006252WS02006251    1.00   0.08  0.00  0.00  0.00  0.00  0.92  0.00  0.00  0.00
  WS02006251WS02006249    1.00   0.00  0.00  0.00  1.00  0.00  0.00  0.00  0.27  0.00
  WS02006249WS02006248    1.00   0.00  0.00  0.00  0.92  0.00  0.08  0.00  0.00  0.00
  WS02006248WS02006247    1.00   0.00  0.00  0.00  0.97  0.00  0.00  0.03  0.16  0.00
  WS02006247WS02006245    1.00   0.00  0.00  0.00  0.97  0.00  0.00  0.02  0.00  0.00
  WS02006245WS02006243    1.00   0.01  0.00  0.00  0.94  0.00  0.00  0.05  0.01  0.00
  WS02006243WS02006242    1.00   0.01  0.00  0.00  0.99  0.00  0.00  0.00  0.23  0.00
  WS02006242WS02006240    1.00   0.01  0.00  0.00  0.99  0.00  0.00  0.00  0.00  0.00
  WS02006240WS02006239    1.00   0.01  0.00  0.00  0.95  0.00  0.00  0.04  0.01  0.00
  WS02006239WS02006238    1.00   0.01  0.00  0.00  0.99  0.00  0.00  0.00  0.10  0.00
  WS02006238WS02006235    1.00   0.01  0.00  0.00  0.99  0.00  0.00  0.00  0.00  0.00
  WS02006235WS02006234    1.00   0.01  0.00  0.00  0.95  0.00  0.04  0.00  0.00  0.00
  WS02006234WS02006232    1.00   0.01  0.00  0.00  0.99  0.00  0.00  0.00  0.07  0.00
  WS02006232WS02006231    1.00   0.01  0.00  0.00  0.99  0.00  0.00  0.00  0.00  0.00
  WS02006231WS02006230    1.00   0.01  0.00  0.00  0.36  0.00  0.63  0.00  0.00  0.00
  WS02006230WS02006229    1.00   0.00  0.00  0.00  0.99  0.00  0.00  0.01  0.00  0.00
  WS02006228WS02006109    1.00   0.00  0.00  0.00  1.00  0.00  0.00  0.00  0.00  0.00
  WS02006116WS02004401    1.00   0.03  0.00  0.00  0.97  0.00  0.00  0.00  0.00  0.00
  WS02006115WS02006116    1.00   0.03  0.00  0.00  0.97  0.00  0.00  0.00  0.00  0.00
  WS02006113WS02006111    1.00   0.02  0.00  0.00  0.00  0.98  0.00  0.00  0.13  0.00
  WS02006112WS02006115    1.00   0.02  0.01  0.00  0.97  0.00  0.00  0.00  0.00  0.00
  WS02006111WS02006112    1.00   0.02  0.00  0.00  0.97  0.00  0.00  0.01  0.94  0.00
  WS02006110WS02006113    1.00   0.00  0.02  0.00  0.98  0.00  0.00  0.00  0.00  0.00
  WS02006109WS02006110    1.00   0.00  0.00  0.00  1.00  0.00  0.00  0.00  0.00  0.00
  WS02004411WS02004412    1.00   0.04  0.00  0.00  0.96  0.00  0.00  0.00  0.00  0.00
  WS02004401WS02004402    1.00   0.03  0.00  0.00  0.97  0.00  0.00  0.00  0.00  0.00
  WS02004413WS02003067    1.00   0.04  0.01  0.00  0.00  0.00  0.94  0.00  0.00  0.00
  WS02004412WS02004413    1.00   0.04  0.00  0.00  0.96  0.00  0.00  0.00  0.03  0.00
  WS02004410WS02004411    1.00   0.04  0.00  0.00  0.96  0.00  0.00  0.00  0.03  0.00
  WS02004409WS02004410    1.00   0.04  0.00  0.00  0.96  0.00  0.00  0.00  0.03  0.00
  WS02004407WS02004409    1.00   0.04  0.00  0.00  0.96  0.00  0.00  0.00  0.86  0.00
  WS02004406WS02004407    1.00   0.00  0.04  0.00  0.96  0.00  0.00  0.00  0.00  0.00
  WS02004405WS02004406    1.00   0.00  0.00  0.00  1.00  0.00  0.00  0.00  0.04  0.00
  WS02004404WS02004405    1.00   0.00  0.00  0.00  1.00  0.00  0.00  0.00  0.00  0.00
  WS02004403WS02004404    1.00   0.00  0.03  0.00  0.97  0.00  0.00  0.00  0.01  0.00
  WS02004402WS02004403    1.00   0.03  0.00  0.00  0.97  0.00  0.00  0.00  0.00  0.00
  WS02004139WS02001211    1.00   0.00  0.00  0.00  1.00  0.00  0.00  0.00  0.00  0.00
  WS02004138WS02004139    1.00   0.00  0.00  0.00  1.00  0.00  0.00  0.00  1.00  0.00
  WS02003067WS02003066    1.00   0.06  0.00  0.00  0.94  0.00  0.00  0.00  0.00  0.00
  WS02001213WS02003059    1.00   0.00  0.00  0.00  1.00  0.00  0.00  0.00  0.00  0.00
  WS02001212WS02001213    1.00   0.00  0.00  0.00  0.93  0.00  0.07  0.00  0.00  0.00
  WS02001211WS02001212    1.00   0.00  0.00  0.00  1.00  0.00  0.00  0.00  0.00  0.00
  WS02003072WS02003073    1.00   0.00  0.00  0.00  0.00  0.00  0.00  1.00  0.00  0.00
  WS02003069WS02003072    1.00   0.00  0.00  0.00  1.00  0.00  0.00  0.00  0.15  0.00
  WS02003060WS02003069    1.00   0.00  0.00  0.00  1.00  0.00  0.00  0.00  0.02  0.00
  WS02003059WS02003060    1.00   0.00  0.00  0.00  1.00  0.00  0.00  0.00  0.01  0.00
  HS02004901HS02004770    1.00   0.04  0.00  0.00  0.96  0.00  0.00  0.00  0.02  0.00
  HS02004876HS02004881    1.00   0.00  0.00  0.00  1.00  0.00  0.00  0.00  0.00  0.00
  HS02004870HS02004876    1.00   0.00  0.00  0.00  1.00  0.00  0.00  0.00  0.95  0.00
  HS02004842HS02004848    1.00   0.00  0.04  0.00  0.96  0.00  0.00  0.00  0.68  0.00
  HS02004837HS02004842    1.00   0.00  0.00  0.00  1.00  0.00  0.00  0.00  0.11  0.00
  HS02004830HS02004837    1.00   0.00  0.00  0.00  1.00  0.00  0.00  0.00  0.99  0.00
  HS02004824HS02004830    1.00   0.00  0.00  0.00  1.00  0.00  0.00  0.00  0.00  0.00
  HS02004817HS02004824    1.00   0.00  0.00  0.00  1.00  0.00  0.00  0.00  1.00  0.00
  HS02004770HS02004777    1.00   0.00  0.04  0.00  0.96  0.00  0.00  0.00  0.07  0.00
  HS02004799HS02004480    1.00   0.00  0.01  0.00  0.95  0.00  0.05  0.00  0.00  0.00
  HS02004792HS02004799    1.00   0.00  0.00  0.00  1.00  0.00  0.00  0.00  0.98  0.00
  HS02004788HS02004792    1.00   0.00  0.00  0.00  1.00  0.00  0.00  0.00  0.98  0.00
  HS02004785HS02004788    1.00   0.00  0.00  0.00  1.00  0.00  0.00  0.00  0.00  0.00
  HS02004777HS02004785    1.00   0.00  0.00  0.00  1.00  0.00  0.00  0.00  0.21  0.00
  HS02004480HS02004478    1.00   0.05  0.00  0.00  0.75  0.00  0.00  0.21  0.00  0.00
  HS02004479HS02004480    1.00   0.01  0.00  0.00  0.99  0.00  0.00  0.00  0.16  0.00
  HS02004862HS02004870    1.00   0.00  0.00  0.00  1.00  0.00  0.00  0.00  0.06  0.00
  HS02004848HS02004852    1.00   0.04  0.00  0.00  0.96  0.00  0.00  0.00  0.71  0.00
  HS02004856HS02004862    1.00   0.00  0.07  0.00  0.93  0.00  0.00  0.00  0.74  0.00
  HS02004852HS02004856    1.00   0.04  0.01  0.00  0.95  0.00  0.00  0.00  0.83  0.00
  HS02004802HS02004478    1.00   0.04  0.01  0.00  0.95  0.00  0.00  0.00  0.01  0.00
  HS02004478WS02006287    1.00   0.05  0.00  0.00  0.88  0.07  0.00  0.00  0.77  0.00
  HS02004817HS02004807    1.00   0.00  0.04  0.00  0.96  0.00  0.00  0.00  0.00  0.00
  HS02004807HS02004802    1.00   0.04  0.00  0.00  0.95  0.00  0.00  0.00  0.01  0.00
  YS02001759YS02001757    1.00   0.00  0.00  0.00  1.00  0.00  0.00  0.00  0.17  0.00
  YS02001762YS02001759    1.00   0.00  0.00  0.00  1.00  0.00  0.00  0.00  0.04  0.00
  YS02001765YS02001762    1.00   0.00  0.00  0.00  1.00  0.00  0.00  0.00  0.22  0.00
  YS02001770YS02001767    1.00   0.00  0.00  0.00  1.00  0.00  0.00  0.00  0.00  0.00
  YS02001774YS02001770    1.00   0.00  0.05  0.00  0.95  0.00  0.00  0.00  0.07  0.00
  YS02001779YS02001774    1.00   0.00  0.00  0.00  1.00  0.00  0.00  0.00  0.26  0.00
  YS02001649YS02001757    1.00   0.00  0.00  0.00  1.00  0.00  0.00  0.00  0.19  0.00
  YS02001767YS02001765    1.00   0.00  0.00  0.00  1.00  0.00  0.00  0.00  0.01  0.00
  YS02006561YS02001783    1.00   0.07  0.00  0.00  0.64  0.29  0.00  0.00  0.73  0.00
  YS02001783YS02001784    1.00   0.00  0.07  0.00  0.93  0.00  0.00  0.00  0.00  0.00
  YS02001784YS02001785    1.00   0.00  0.00  0.00  1.00  0.00  0.00  0.00  0.25  0.00
  YS02001788YS02001790    1.00   0.00  0.00  0.00  0.78  0.22  0.00  0.00  0.39  0.00
  YS02001790YS02001791    1.00   0.00  0.00  0.00  0.74  0.26  0.00  0.00  0.15  0.00
  YS02001791YS02001793    1.00   0.00  0.00  0.00  0.78  0.22  0.00  0.00  0.04  0.00
  YS02001910YS02001907    1.00   0.00  0.00  0.00  0.99  0.00  0.00  0.00  0.13  0.00
  YS02001786YS02001788    1.00   0.00  0.00  0.00  0.75  0.25  0.00  0.00  0.00  0.00
  YS02001915YS02001910    1.00   0.00  0.00  0.00  1.00  0.00  0.00  0.00  0.24  0.00
  YS02001918YS02001915    1.00   0.00  0.00  0.00  1.00  0.00  0.00  0.00  0.82  0.00
  YS02001923YS02001920    1.00   0.00  0.00  0.00  1.00  0.00  0.00  0.00  1.00  0.00
  YS02001926YS02001923    1.00   0.00  0.03  0.00  0.00  0.00  0.97  0.00  0.00  0.00
  YS02001929YS02001926    1.00   0.00  0.04  0.00  0.96  0.00  0.00  0.00  0.87  0.00
  YS02001920YS02001918    1.00   0.00  0.00  0.00  1.00  0.00  0.00  0.00  0.00  0.00
  YS02001629YS02163301    1.00   0.06  0.00  0.00  0.94  0.00  0.00  0.00  0.00  0.00
  YS02001619YS02001622    1.00   0.04  0.00  0.00  0.96  0.00  0.00  0.00  0.00  0.00
  YS02001622YS02001625    1.00   0.04  0.00  0.00  0.96  0.00  0.00  0.00  0.13  0.00
  YS02001625YS02001629    1.00   0.04  0.03  0.00  0.92  0.00  0.01  0.00  0.00  0.00
  YS02163301YS02001633    1.00   0.00  0.06  0.00  0.94  0.00  0.00  0.00  0.00  0.00
  YS02163601YS02164001    1.00   0.00  0.03  0.00  0.97  0.00  0.00  0.00  0.00  0.00
  YS02164001YS02001641    1.00   0.00  0.03  0.00  0.97  0.00  0.00  0.00  0.07  0.00
  YS02001641YS02001644    1.00   0.00  0.00  0.00  1.00  0.00  0.00  0.00  0.00  0.00
  YS02001647YS02001649    1.00   0.00  0.07  0.00  0.93  0.00  0.00  0.00  0.01  0.00
  YS02006553YS02006556    1.00   0.00  0.00  0.00  1.00  0.00  0.00  0.00  0.03  0.00
  YS02006556YS02006558    1.00   0.00  0.00  0.00  1.00  0.00  0.00  0.00  0.00  0.00
  YSB6556YSB1171          1.00   0.01  0.03  0.00  0.96  0.00  0.00  0.00  0.00  0.00
  YS02001907YS02006553    1.00   0.00  0.00  0.00  1.00  0.00  0.00  0.00  0.00  0.00
  YS02006558YS02006561    1.00   0.07  0.00  0.00  0.00  0.93  0.00  0.00  0.69  0.00
  YS02001633YS02163601    1.00   0.00  0.00  0.00  1.00  0.00  0.00  0.00  0.20  0.00
  YS02001644YS02001647    1.00   0.00  0.07  0.00  0.93  0.00  0.00  0.00  0.00  0.00
  YS02001745YS02001748    1.00   0.00  0.00  0.00  0.87  0.01  0.00  0.11  0.35  0.00
  YS02001748YS02001751    1.00   0.00  0.00  0.00  0.98  0.02  0.00  0.00  0.24  0.00
  YS02001751YS02001754    1.00   0.00  0.00  0.00  0.93  0.00  0.00  0.07  0.02  0.00
  YS02001754YS02001757    1.00   0.00  0.00  0.00  1.00  0.00  0.00  0.00  0.26  0.00
  YS02001882YS02001884    1.00   0.06  0.00  0.00  0.94  0.00  0.00  0.00  0.00  0.00
  YS02001884YS02001887    1.00   0.02  0.01  0.00  0.96  0.00  0.00  0.00  0.00  0.00
  YS02001890YS02001895    1.00   0.00  0.06  0.00  0.94  0.00  0.00  0.00  0.00  0.00
  YS02001895YS02001898    1.00   0.06  0.00  0.00  0.93  0.00  0.01  0.00  0.00  0.00
  YS02001898YS02001901    1.00   0.06  0.00  0.00  0.94  0.00  0.00  0.00  0.02  0.00
  YS02001901YS02001904    1.00   0.06  0.00  0.00  0.94  0.00  0.00  0.00  0.00  0.00
  YS02001904YS02001907    1.00   0.00  0.06  0.00  0.94  0.00  0.00  0.00  0.00  0.00
  YS02001887YS02001890    1.00   0.00  0.00  0.00  0.99  0.00  0.01  0.00  0.00  0.00
  YS02001652YS02001649    1.00   0.00  0.00  0.00  1.00  0.00  0.00  0.00  0.26  0.00
  YS02001655YS02001652    1.00   0.00  0.00  0.00  0.93  0.00  0.00  0.07  0.02  0.00
  YS02001658YS02001655    1.00   0.00  0.05  0.00  0.92  0.02  0.00  0.00  0.11  0.00
  YS02001661YS02001658    1.00   0.05  0.00  0.00  0.87  0.08  0.00  0.00  0.28  0.00
  YS02001664YS02001661    1.00   0.04  0.00  0.00  0.75  0.21  0.00  0.00  0.86  0.00
  YSB1154YSB6556          1.00   0.04  0.00  0.00  0.96  0.00  0.00  0.00  0.02  0.00
  YSB1174YSB1171          1.00   0.01  0.02  0.00  0.96  0.00  0.00  0.00  0.00  0.00
  YSB1171HS02004479       1.00   0.01  0.00  0.00  0.98  0.00  0.00  0.01  0.13  0.00
  HS02004881HS02006253    1.00   0.01  0.00  0.00  0.91  0.00  0.00  0.08  0.70  0.00
  YS02001793JiankangQianchi    1.00   0.00  0.00  0.00  0.97  0.03  0.00  0.00  0.27  0.00
  YS02001757CaochengTiaoxuchi    1.00   0.00  0.08  0.00  0.92  0.00  0.00  0.00  0.00  0.00
  WSF200WS02003060        1.00   0.00  0.05  0.00  0.86  0.09  0.00  0.00  0.54  0.00
  1                       1.00   0.00  0.00  0.00  0.00  1.00  0.00  0.00  0.24  0.00
  2                       1.00   1.00  0.00  0.00  0.00  0.00  0.00  0.00  0.00  0.00
  3                       1.00   0.75  0.00  0.00  0.00  0.25  0.00  0.00  0.00  0.00
  4                       1.00   1.00  0.00  0.00  0.00  0.00  0.00  0.00  0.00  0.00
  
  
  *************************
  Conduit Surcharge Summary
  *************************
  
  ----------------------------------------------------------------------------
                                                           Hours        Hours 
                         --------- Hours Full --------   Above Full   Capacity
  Conduit                Both Ends  Upstream  Dnstream   Normal Flow   Limited
  ----------------------------------------------------------------------------
  WS02006229WS02006228        0.11      0.26      0.11      2.07         0.11
  WS02006256WS02006235        5.52      5.53      6.64      1.52         0.01
  WS02006249WS02006248        0.01      0.01      0.01      5.47         0.01
  WS02006247WS02006245        0.01      0.01      0.01      5.48         0.01
  WS02006235WS02006234        0.01      0.01      0.01      5.54         0.01
  WS02006231WS02006230        0.01      0.01      0.01      5.54         0.01
  WS02006230WS02006229        1.09      2.03      1.09      5.66         1.09
  WS02006228WS02006109        0.14      0.65      0.14      2.43         0.14
  WS02006111WS02006112        0.01      0.01      2.10      0.01         0.01
  WS02006110WS02006113        0.01      0.01      0.44      0.01         0.01
  WS02006109WS02006110        0.01      0.01      0.65      0.01         0.01
  WS02004404WS02004405        0.01      0.01      0.01      5.61         0.01
  WS02003072WS02003073        0.01      0.01      0.01      5.52         0.01
  YS02001759YS02001757        5.21      5.21      5.34      0.01         0.01
  YS02001762YS02001759        5.15      5.15      5.21      0.01         0.01
  YS02001765YS02001762        5.04      5.04      5.15      0.01         0.01
  YS02001770YS02001767        4.48      4.48      4.62      0.01         0.73
  YS02001774YS02001770        3.91      3.91      5.12      0.01         0.01
  YS02001779YS02001774        0.31      0.31      5.12      0.01         0.01
  YS02001649YS02001757        5.17      5.17      5.34      0.01         0.01
  YS02001767YS02001765        4.62      4.62      5.04      0.01         0.01
  YS02001788YS02001790        0.01      0.01      3.89      0.01         0.01
  YS02001790YS02001791        3.89      3.89      4.08      0.01         0.01
  YS02001791YS02001793        4.08      4.08      4.48      0.01         0.01
  YS02001629YS02163301        3.58      3.58      4.12      0.01         0.01
  YS02001622YS02001625        0.01      0.01      2.56      0.01         0.01
  YS02001625YS02001629        0.01      0.01      2.56      0.01         0.01
  YS02163301YS02001633        4.12      4.12      5.06      0.01         0.01
  YS02163601YS02164001        5.04      5.04      5.17      0.01         0.01
  YS02164001YS02001641        5.04      5.04      5.09      0.01         0.01
  YS02001641YS02001644        5.09      5.09      5.10      0.01         0.37
  YS02001647YS02001649        2.40      2.40      5.17      0.01         0.01
  YS02001633YS02163601        4.98      4.98      5.17      0.01         0.01
  YS02001644YS02001647        2.40      2.40      5.10      0.01         0.01
  YS02001751YS02001754        0.01      0.01      0.65      0.01         0.01
  YS02001754YS02001757        2.44      2.44      5.34      0.01         0.01
  YS02001652YS02001649        2.73      2.73      5.17      0.01         0.01
  YS02001655YS02001652        0.01      0.01      1.94      0.01         0.01
  YS02001793JiankangQianchi        4.37      4.37      5.98      0.01         0.01
  YS02001757CaochengTiaoxuchi        0.01      0.01      5.34      0.01         0.01
  
  
  ***************
  Pumping Summary
  ***************
  
  ---------------------------------------------------------------------------------------------------------
                                                  Min       Avg       Max     Total     Power    % Time Off
                        Percent   Number of      Flow      Flow      Flow    Volume     Usage    Pump Curve
  Pump                 Utilized   Start-Ups       LPS       LPS       LPS  10^6 ltr     Kw-hr    Low   High
  ---------------------------------------------------------------------------------------------------------
  CC-Pump-1                0.00           0      0.00      0.00      0.00     0.000      0.00    0.0    0.0
  CC-Pump-2               70.85           1      0.00    199.16    200.00     3.965     11.73    0.0   16.3
  JK-Pump-1               31.90           2      0.00    243.48    300.00     1.534     10.77    0.0    0.0
  JK-Pump-2               12.76           1      0.00    100.95    300.00     0.094      1.48    0.0    0.0
  XR-Pump-1               95.73           1      0.00     94.30     95.00     2.536     56.31    0.0    0.0
  XR-Pump-2               76.59           3      0.00     89.79     95.00     1.938     44.83    0.0    0.0
  XR-Pump-3               85.11           2      0.00     91.72     95.00     2.223     48.99    0.0    0.0
  XR-Pump-4               95.73           1      0.00     94.30     95.00     2.536     56.31    0.0    0.0
  

  Analysis begun on:  Thu Jan  6 00:21:40 2022
  Analysis ended on:  Thu Jan  6 00:21:42 2022
  Total elapsed time: 00:00:02