
  EPA STORM WATER MANAGEMENT MODEL - VERSION 5.1 (Build 5.3.0.dev0)
  --------------------------------------------------------------

  WARNING 04: minimum elevation drop used for Conduit WS02004404WS02004405
  WARNING 03: negative offset ignored for Link YS02001904YS02001907
  
  *********************************************************
  NOTE: The summary statistics displayed in this report are
  based on results found at every computational time step,  
  not just on results from each reporting time step.
  *********************************************************
  
  ****************
  Analysis Options
  ****************
  Flow Units ............... LPS
  Process Models:
    Rainfall/Runoff ........ YES
    RDII ................... NO
    Snowmelt ............... NO
    Groundwater ............ NO
    Flow Routing ........... YES
    Ponding Allowed ........ NO
    Water Quality .......... NO
  Infiltration Method ...... HORTON
  Flow Routing Method ...... DYNWAVE
  Surcharge Method ......... EXTRAN
  Starting Date ............ 08/28/2015 08:00:00
  Ending Date .............. 08/28/2015 15:50:00
  Antecedent Dry Days ...... 8.0
  Report Time Step ......... 00:01:00
  Wet Time Step ............ 00:01:00
  Dry Time Step ............ 00:01:00
  Routing Time Step ........ 5.00 sec
  Variable Time Step ....... YES
  Maximum Trials ........... 8
  Number of Threads ........ 4
  Head Tolerance ........... 0.001500 m
  
  
  **************************        Volume         Depth
  Runoff Quantity Continuity     hectare-m            mm
  **************************     ---------       -------
  Total Precipitation ......         3.517         7.699
  Evaporation Loss .........         0.000         0.000
  Infiltration Loss ........         0.893         1.955
  Surface Runoff ...........         1.682         3.682
  Final Storage ............         0.943         2.064
  Continuity Error (%) .....        -0.018
  
  
  **************************        Volume        Volume
  Flow Routing Continuity        hectare-m      10^6 ltr
  **************************     ---------     ---------
  Dry Weather Inflow .......         0.616         6.165
  Wet Weather Inflow .......         1.681        16.806
  Groundwater Inflow .......         0.000         0.000
  RDII Inflow ..............         0.000         0.000
  External Inflow ..........         0.102         1.024
  External Outflow .........         1.511        15.105
  Flooding Loss ............         0.476         4.759
  Evaporation Loss .........         0.000         0.000
  Exfiltration Loss ........         0.000         0.000
  Initial Stored Volume ....         0.076         0.761
  Final Stored Volume ......         0.572         5.724
  Continuity Error (%) .....        -3.368
  
  
  *************************
  Highest Continuity Errors
  *************************
  Node YS02001774 (35.08%)
  Node HS02004842 (23.63%)
  Node YS02001884 (15.64%)
  Node YSB1171 (5.13%)
  Node HS02004817 (4.11%)
  
  
  ***************************
  Time-Step Critical Elements
  ***************************
  Link WS02006252WS02006251 (92.27%)
  Link WS02006280WS02006229 (2.00%)
  Link 3 (1.95%)
  
  
  ********************************
  Highest Flow Instability Indexes
  ********************************
  Link WS02006113WS02006111 (52)
  Link WS02006111WS02006112 (32)
  Link YS02001779YS02001774 (30)
  Link YS02001791YS02001793 (30)
  Link YS02001793JiankangQianchi (30)
  
  
  *************************
  Routing Time Step Summary
  *************************
  Minimum Time Step           :     0.47 sec
  Average Time Step           :     0.88 sec
  Maximum Time Step           :     5.00 sec
  Percent in Steady State     :    -0.00
  Average Iterations per Step :     4.25
  Percent Not Converging      :    22.13
  
  
  ***************************
  Subcatchment Runoff Summary
  ***************************
  
  ------------------------------------------------------------------------------------------------------------------------------
                            Total      Total      Total      Total     Imperv       Perv      Total       Total     Peak  Runoff
                           Precip      Runon       Evap      Infil     Runoff     Runoff     Runoff      Runoff   Runoff   Coeff
  Subcatchment                 mm         mm         mm         mm         mm         mm         mm    10^6 ltr      LPS
  ------------------------------------------------------------------------------------------------------------------------------
  sub0                       7.70       0.00       0.00       0.54       5.90       0.00       5.90        0.00     2.28   0.766
  sub1                       7.70       0.00       0.00       0.85       5.60       0.00       5.60        0.04    12.01   0.727
  sub2                       7.70       0.00       0.00       2.85       3.94       0.00       3.94        0.04    10.62   0.512
  sub3                       7.70       0.00       0.00       2.85       3.91       0.00       3.91        0.09    21.84   0.508
  sub4                       7.70       0.00       0.00       0.85       5.45       0.00       5.45        0.11    24.49   0.708
  sub5                       7.70       0.00       0.00       0.54       5.85       0.00       5.85        0.07    21.36   0.760
  sub7                       7.70       0.00       0.00       0.69       5.75       0.00       5.75        0.02     7.53   0.747
  sub8                       7.70       0.00       0.00       0.69       5.74       0.00       5.74        0.04    13.30   0.746
  sub9                       7.70       0.00       0.00       0.69       5.74       0.00       5.74        0.03     9.86   0.746
  sub10                      7.70       0.00       0.00       0.62       5.79       0.00       5.79        0.06    21.33   0.752
  sub11                      7.70       0.00       0.00       0.62       5.81       0.00       5.81        0.07    25.01   0.754
  sub12                      7.70       0.00       0.00       1.00       5.51       0.00       5.51        0.05    21.13   0.716
  sub14                      7.70       0.00       0.00       0.69       5.74       0.00       5.74        0.05    19.27   0.745
  sub15                      7.70       0.00       0.00       2.31       4.41       0.00       4.41        0.08    26.13   0.573
  sub16                      7.70       0.00       0.00       2.54       4.24       0.00       4.24        0.04    18.58   0.551
  sub17                      7.70       0.00       0.00       2.46       4.30       0.00       4.30        0.04    15.03   0.559
  sub22                      7.70       0.00       0.00       3.31       3.60       0.00       3.60        0.23    85.60   0.468
  sub23                      7.70       0.00       0.00       2.85       3.98       0.00       3.98        0.19    72.88   0.517
  sub60                      7.70       0.00       0.00       0.92       4.16       0.00       4.16        1.26   124.62   0.540
  sub61                      7.70       0.00       0.00       1.31       4.36       0.00       4.36        1.34   156.18   0.566
  sub62                      7.70       0.00       0.00       0.62       4.70       0.00       4.70        1.44   159.65   0.610
  sub63                      7.70       0.00       0.00       2.23       3.85       0.00       3.85        1.17   145.76   0.500
  sub64                      7.70       0.00       0.00       1.15       3.98       0.00       3.98        1.21   118.39   0.517
  sub65                      7.70       0.00       0.00       1.00       4.03       0.00       4.03        1.24   120.16   0.524
  sub66                      7.70       0.00       0.00       2.23       3.45       0.00       3.45        1.06   108.45   0.448
  sub67                      7.70       0.00       0.00       0.62       5.08       0.00       5.08        1.57   204.88   0.660
  sub68                      7.70       0.00       0.00       1.08       4.61       0.00       4.61        1.42   172.66   0.599
  sub69                      7.70       0.00       0.00       1.15       4.90       0.00       4.90        1.14   171.52   0.636
  sub70                      7.70       5.00       0.00       4.32       6.24       0.00       6.24        1.43   142.17   0.491
  sub71                      7.70       0.00       0.00       0.62       4.52       0.00       4.52        1.07   111.46   0.588
  sub72                      7.70       0.00       0.00       0.54       3.34       0.00       3.34        0.68    53.99   0.434
  sub73                      7.70       6.07       0.00       4.68       6.53       0.00       6.53        1.53   124.36   0.474
  sub74                      7.70       0.00       0.00       5.77       1.47       0.00       1.47        0.59    95.72   0.191
  
  
  ******************
  Node Depth Summary
  ******************
  
  ---------------------------------------------------------------------------------
                                 Average  Maximum  Maximum  Time of Max    Reported
                                   Depth    Depth      HGL   Occurrence   Max Depth
  Node                 Type       Meters   Meters   Meters  days hr:min      Meters
  ---------------------------------------------------------------------------------
  WS02001211           JUNCTION     0.73     0.77     5.61     0  05:38        0.77
  WS02001212           JUNCTION     0.44     0.47     5.53     0  05:37        0.47
  WS02001213           JUNCTION     0.67     0.70     5.47     0  02:29        0.70
  WS02003069           JUNCTION     0.45     0.54     5.13     0  02:31        0.54
  WS02003072           JUNCTION     0.51     0.60     4.98     0  02:32        0.60
  WS02003073           JUNCTION     0.31     0.37     4.43     0  02:33        0.37
  WS02003060           JUNCTION     0.40     0.48     5.41     0  02:31        0.48
  WS02003066           JUNCTION     0.21     0.29     5.85     0  02:33        0.29
  WS02003059           JUNCTION     0.72     0.76     5.45     0  02:29        0.76
  WS02003067           JUNCTION     0.53     0.69     6.01     0  02:33        0.69
  WS02004401           JUNCTION     0.60     0.84     6.84     0  02:29        0.84
  WS02004402           JUNCTION     0.64     0.87     6.83     0  02:29        0.87
  WS02004403           JUNCTION     0.66     0.88     6.81     0  02:29        0.88
  WS02004404           JUNCTION     0.74     0.96     6.81     0  02:29        0.96
  WS02004406           JUNCTION     0.75     0.95     6.78     0  02:30        0.95
  WS02004409           JUNCTION     0.42     0.66     6.43     0  02:32        0.66
  WS02004410           JUNCTION     0.44     0.67     6.39     0  02:32        0.67
  WS02004411           JUNCTION     0.46     0.68     6.36     0  02:32        0.68
  WS02004412           JUNCTION     0.48     0.69     6.33     0  02:32        0.69
  WS02004413           JUNCTION     0.64     0.85     6.32     0  02:33        0.85
  WS02004405           JUNCTION     0.73     0.95     6.80     0  02:29        0.95
  WS02006109           JUNCTION     0.67     0.97     7.58     0  02:24        0.96
  WS02006110           JUNCTION     0.68     0.91     7.50     0  02:25        0.91
  WS02006111           JUNCTION     0.19     0.28     6.99     0  02:27        0.28
  WS02006112           JUNCTION     0.76     1.04     6.92     0  02:29        1.03
  WS02006113           JUNCTION     0.29     0.45     7.34     0  02:26        0.45
  WS02006115           JUNCTION     0.49     0.74     6.88     0  02:29        0.74
  WS02006116           JUNCTION     0.57     0.82     6.86     0  02:29        0.82
  WS02006230           JUNCTION     0.60     0.97     7.71     0  02:26        0.97
  WS02006231           JUNCTION     0.39     0.62     7.74     0  02:27        0.62
  WS02006232           JUNCTION     0.52     0.73     7.77     0  02:27        0.73
  WS02006234           JUNCTION     0.42     0.63     7.79     0  02:28        0.63
  WS02006235           JUNCTION     0.45     0.65     7.81     0  02:28        0.64
  WS02006238           JUNCTION     0.48     0.67     7.82     0  02:28        0.67
  WS02006240           JUNCTION     0.40     0.57     7.86     0  02:28        0.57
  WS02006242           JUNCTION     0.47     0.63     7.90     0  02:29        0.63
  WS02006243           JUNCTION     0.36     0.51     7.93     0  02:29        0.51
  WS02006245           JUNCTION     0.36     0.48     7.97     0  02:29        0.48
  WS02006247           JUNCTION     0.39     0.50     8.00     0  02:29        0.50
  WS02006248           JUNCTION     0.34     0.44     8.03     0  02:29        0.44
  WS02006249           JUNCTION     0.38     0.47     8.07     0  02:29        0.47
  WS02006239           JUNCTION     0.44     0.63     7.84     0  02:28        0.63
  WS02006251           JUNCTION     0.37     0.46     8.13     0  02:29        0.46
  WS02006252           JUNCTION     0.32     0.35     8.59     0  02:14        0.35
  WS02006253           JUNCTION     0.40     0.49     8.13     0  02:20        0.49
  WS02006256           JUNCTION     0.69     1.19     8.12     0  00:30        1.19
  WS02004138           JUNCTION     0.18     0.19     7.44     0  01:20        0.19
  WS02004407           JUNCTION     0.19     0.29     6.61     0  02:30        0.29
  WS02006228           JUNCTION     0.66     1.00     7.65     0  02:24        0.99
  WS02006229           JUNCTION     0.63     0.99     7.68     0  02:25        0.99
  WS02006280           JUNCTION     0.06     0.18     8.45     0  02:14        0.18
  WS02006284           JUNCTION     0.35     0.53     8.93     0  02:14        0.53
  WS02006287           JUNCTION     0.08     0.27     9.22     0  02:13        0.27
  WSF200               JUNCTION     0.18     0.30     5.54     0  02:33        0.30
  HS02004901           JUNCTION     0.11     0.28    10.10     0  02:11        0.28
  HS02004881           JUNCTION     0.01     0.03     9.06     0  02:14        0.03
  HS02004876           JUNCTION     0.04     0.11     9.14     0  02:08        0.11
  HS02004870           JUNCTION     0.01     0.06     9.34     0  02:14        0.06
  HS02004862           JUNCTION     0.01     0.06     9.45     0  02:15        0.06
  HS02004856           JUNCTION     0.08     0.12     9.54     0  02:14        0.12
  HS02004852           JUNCTION     0.01     0.04     9.55     0  02:15        0.04
  HS02004848           JUNCTION     0.01     0.04     9.64     0  02:14        0.04
  HS02004842           JUNCTION     0.33     0.37     9.64     0  02:14        0.37
  HS02004837           JUNCTION     0.03     0.06     9.64     0  02:14        0.06
  HS02004830           JUNCTION     0.04     0.07     9.54     0  02:14        0.07
  HS02004824           JUNCTION     0.02     0.05     9.45     0  02:17        0.05
  HS02004817           JUNCTION     0.43     0.57     9.42     0  02:14        0.57
  HS02004807           JUNCTION     0.12     0.25     9.42     0  02:14        0.25
  HS02004802           JUNCTION     0.15     0.28     9.41     0  02:14        0.28
  HS02004799           JUNCTION     0.10     0.32     9.53     0  02:12        0.32
  HS02004792           JUNCTION     0.03     0.13     9.66     0  02:12        0.13
  HS02004788           JUNCTION     0.02     0.10    10.00     0  02:12        0.10
  HS02004785           JUNCTION     0.04     0.17    10.07     0  02:12        0.17
  HS02004777           JUNCTION     0.14     0.29    10.09     0  02:12        0.29
  HS02004770           JUNCTION     0.11     0.27    10.10     0  02:11        0.27
  HS02004480           JUNCTION     0.07     0.26     9.50     0  02:13        0.26
  HS02004479           JUNCTION     0.10     0.29     9.50     0  02:13        0.29
  HS02004478           JUNCTION     0.05     0.17     9.40     0  02:14        0.17
  YS02001745           JUNCTION     0.61     0.84     8.36     0  04:42        0.84
  YS02001748           JUNCTION     1.00     1.29     8.36     0  04:40        1.28
  YS02001751           JUNCTION     1.18     1.99     8.87     0  03:11        1.48
  YS02001754           JUNCTION     1.43     1.97     8.58     0  03:10        1.75
  YS02001762           JUNCTION     1.63     1.98     8.38     0  04:38        1.97
  YS02001765           JUNCTION     1.58     1.93     8.38     0  04:39        1.92
  YS02001767           JUNCTION     1.55     1.89     8.38     0  04:32        1.89
  YS02001770           JUNCTION     1.54     1.88     8.37     0  04:46        1.88
  YS02001774           JUNCTION     1.61     1.95     8.38     0  04:34        1.95
  YS02001779           JUNCTION     1.36     1.68     8.37     0  04:29        1.68
  YS02001882           JUNCTION     0.33     0.60     7.31     0  02:47        0.59
  YS02001884           JUNCTION     0.43     0.69     7.31     0  02:44        0.69
  YS02001759           JUNCTION     1.66     2.02     8.38     0  04:46        2.00
  YS02001887           JUNCTION     0.51     0.77     7.31     0  02:47        0.77
  YS02001890           JUNCTION     0.54     0.80     7.31     0  02:47        0.80
  YS02001898           JUNCTION     0.31     0.56     7.29     0  02:46        0.55
  YS02001901           JUNCTION     0.42     0.68     7.29     0  02:46        0.68
  YS02001904           JUNCTION     0.40     0.66     7.29     0  02:40        0.66
  YS02001907           JUNCTION     0.73     1.00     7.29     0  02:49        1.00
  YS02001910           JUNCTION     0.52     0.79     7.30     0  02:49        0.79
  YS02001915           JUNCTION     0.32     0.57     7.29     0  02:48        0.57
  YS02001918           JUNCTION     0.11     0.22     7.29     0  02:47        0.22
  YS02001619           JUNCTION     1.14     1.51     8.44     0  03:37        1.46
  YS02001629           JUNCTION     1.50     1.85     8.40     0  03:43        1.84
  YS02001641           JUNCTION     1.60     1.94     8.37     0  04:25        1.93
  YS02001644           JUNCTION     1.60     1.92     8.35     0  04:13        1.92
  YS02001652           JUNCTION     1.45     2.07     8.66     0  03:06        1.79
  YS02001655           JUNCTION     1.21     2.10     8.95     0  03:06        1.55
  YS02001920           JUNCTION     0.20     0.29     7.30     0  02:48        0.29
  YS02001923           JUNCTION     0.08     0.11     7.37     0  03:01        0.11
  YS02001926           JUNCTION     0.16     0.21     7.66     0  03:01        0.21
  YS02001929           JUNCTION     0.08     0.11     7.80     0  03:01        0.11
  YS02001658           JUNCTION     0.94     2.03     9.17     0  03:30        1.28
  YS02001661           JUNCTION     0.71     1.05     8.46     0  04:36        1.04
  YS02001664           JUNCTION     0.29     0.54     8.46     0  04:36        0.53
  YS02001622           JUNCTION     1.17     1.52     8.43     0  03:38        1.49
  YS02001633           JUNCTION     1.59     1.94     8.39     0  04:27        1.92
  YS02001649           JUNCTION     1.64     2.00     8.39     0  04:49        1.98
  YS02001757           JUNCTION     1.76     2.12     8.38     0  04:54        2.10
  YS02001895           JUNCTION     0.30     0.55     7.30     0  02:46        0.55
  YS02001625           JUNCTION     1.45     1.78     8.38     0  03:36        1.78
  YS02163301           JUNCTION     1.53     1.88     8.39     0  04:29        1.87
  YS02163601           JUNCTION     1.64     1.99     8.38     0  04:26        1.97
  YS02164001           JUNCTION     1.58     1.92     8.38     0  04:25        1.91
  YS02001647           JUNCTION     1.43     1.76     8.37     0  04:46        1.75
  YSB1154              JUNCTION     0.24     0.44     9.50     0  02:13        0.44
  YSB6556              JUNCTION     0.14     0.33     9.50     0  02:12        0.33
  YSB1174              JUNCTION     0.19     0.39     9.50     0  02:13        0.39
  YSB1171              JUNCTION     0.40     0.60     9.50     0  02:13        0.60
  YS02006553           JUNCTION     0.74     1.03     7.31     0  02:48        1.00
  YS02006561           JUNCTION     0.17     0.30     6.96     0  02:41        0.29
  YS02006556           JUNCTION     0.71     0.98     7.29     0  02:49        0.98
  YS02006558           JUNCTION     0.75     1.03     7.30     0  02:49        1.01
  YS02001783           JUNCTION     0.49     0.86     7.00     0  02:29        0.80
  YS02001784           JUNCTION     0.55     1.15     7.21     0  02:28        0.86
  YS02001786           JUNCTION     0.57     0.89     6.92     0  02:29        0.89
  YS02001788           JUNCTION     0.60     1.19     7.17     0  02:28        0.78
  YS02001790           JUNCTION     0.89     1.96     7.60     0  02:26        1.06
  YS02001791           JUNCTION     1.02     2.17     7.64     0  02:26        1.18
  YS02001793           JUNCTION     1.58     2.91     7.74     0  02:24        1.78
  WS02004139           JUNCTION     0.67     0.71     5.62     0  05:38        0.71
  WSC                  OUTFALL      0.31     0.37     1.04     0  02:33        0.37
  3                    OUTFALL      0.00     0.19     6.19     0  00:30        0.19
  4                    OUTFALL      0.00     0.00     7.00     0  00:00        0.00
  5                    OUTFALL      0.00     0.00     5.00     0  00:00        0.00
  JK-storage           STORAGE      5.32     5.80     6.60     0  02:27        5.80
  CC-storage           STORAGE      1.01     1.35     8.35     0  04:46        1.35
  XR-storage           STORAGE      2.30     5.10     3.10     0  00:21        5.10
  
  
  *******************
  Node Inflow Summary
  *******************
  
  -------------------------------------------------------------------------------------------------
                                  Maximum  Maximum                  Lateral       Total        Flow
                                  Lateral    Total  Time of Max      Inflow      Inflow     Balance
                                   Inflow   Inflow   Occurrence      Volume      Volume       Error
  Node                 Type           LPS      LPS  days hr:min    10^6 ltr    10^6 ltr     Percent
  -------------------------------------------------------------------------------------------------
  WS02001211           JUNCTION      7.35   387.67     0  05:46       0.207        9.34       0.453
  WS02001212           JUNCTION      0.00   387.68     0  05:46           0         9.3       0.253
  WS02001213           JUNCTION      0.00   387.68     0  05:46           0        9.28       0.272
  WS02003069           JUNCTION      0.32   834.94     0  02:31     0.00902        15.1       0.207
  WS02003072           JUNCTION      0.00   834.90     0  02:32           0          15       0.252
  WS02003073           JUNCTION      1.82   836.75     0  02:32      0.0514          15       0.285
  WS02003060           JUNCTION     16.53   834.52     0  02:30       0.466        15.1       0.195
  WS02003066           JUNCTION      0.00   522.32     0  02:33           0        5.41       0.069
  WS02003059           JUNCTION      0.00   387.69     0  05:45           0        9.26       0.453
  WS02003067           JUNCTION      0.00   522.29     0  02:33           0        5.42       0.151
  WS02004401           JUNCTION      0.00   527.56     0  02:28           0        5.63       0.337
  WS02004402           JUNCTION      0.00   526.67     0  02:28           0        5.61       0.322
  WS02004403           JUNCTION      0.00   526.30     0  02:28           0        5.59       0.296
  WS02004404           JUNCTION      0.16   526.11     0  02:28     0.00457        5.58       0.228
  WS02004406           JUNCTION      0.00   526.22     0  02:29           0        5.55       0.556
  WS02004409           JUNCTION      0.00   525.87     0  02:30           0        5.51       0.239
  WS02004410           JUNCTION      0.00   524.21     0  02:30           0         5.5       0.276
  WS02004411           JUNCTION      0.00   523.07     0  02:31           0        5.48       0.289
  WS02004412           JUNCTION      0.00   522.59     0  02:32           0        5.47       0.319
  WS02004413           JUNCTION      0.00   522.37     0  02:32           0        5.45       0.485
  WS02004405           JUNCTION      0.04   526.08     0  02:28     0.00107        5.57       0.341
  WS02006109           JUNCTION      1.23   522.16     0  02:25      0.0347         5.7       0.349
  WS02006110           JUNCTION      0.00   522.19     0  02:25           0        5.68       0.329
  WS02006111           JUNCTION      0.00   541.97     0  02:26           0        5.65       0.066
  WS02006112           JUNCTION     15.03   533.95     0  02:27      0.0369        5.69       0.474
  WS02006113           JUNCTION      0.00   522.29     0  02:26           0        5.66       0.138
  WS02006115           JUNCTION      0.00   531.99     0  02:27           0        5.66       0.301
  WS02006116           JUNCTION      0.00   528.89     0  02:28           0        5.64       0.282
  WS02006230           JUNCTION     10.28   273.00     0  02:36        0.29        4.54       0.236
  WS02006231           JUNCTION      0.00   260.51     0  02:35           0        4.25       0.170
  WS02006232           JUNCTION      0.00   260.16     0  02:34           0        4.26       0.334
  WS02006234           JUNCTION      0.00   258.10     0  02:34           0        4.25       0.166
  WS02006235           JUNCTION      0.00   257.12     0  02:34           0        4.28       0.183
  WS02006238           JUNCTION      0.00   255.97     0  02:34           0        4.22       0.149
  WS02006240           JUNCTION      0.00   252.31     0  02:32           0        4.22       0.255
  WS02006242           JUNCTION      0.00   254.27     0  02:20           0        4.22       0.307
  WS02006243           JUNCTION      0.00   257.69     0  02:20           0        4.22       0.180
  WS02006245           JUNCTION      0.00   259.61     0  02:19           0        4.23       0.196
  WS02006247           JUNCTION      0.00   261.13     0  02:19           0        4.23       0.155
  WS02006248           JUNCTION      0.00   262.37     0  02:19           0        4.24       0.109
  WS02006249           JUNCTION      0.00   263.61     0  02:18           0        4.25       0.221
  WS02006239           JUNCTION      0.00   254.18     0  02:34           0        4.22       0.147
  WS02006251           JUNCTION      0.08   265.00     0  02:16     0.00217        4.26       0.206
  WS02006252           JUNCTION      0.00   200.00     0  02:14           0        4.05       0.011
  WS02006253           JUNCTION      2.28    67.61     0  02:14     0.00477       0.211       1.651
  WS02006256           JUNCTION      0.00   600.00     0  00:30           0        0.19       1.065
  WS02004138           JUNCTION      0.00   380.00     0  01:20           0        9.18       0.058
  WS02004407           JUNCTION      0.00   525.94     0  02:30           0        5.52       0.110
  WS02006228           JUNCTION      0.00   521.06     0  02:25           0        5.68       0.239
  WS02006229           JUNCTION      0.00   520.75     0  02:25           0        5.71       0.236
  WS02006280           JUNCTION      0.00   336.72     0  02:14           0        1.19       0.006
  WS02006284           JUNCTION      0.10   336.67     0  02:14      0.0027        1.19       0.095
  WS02006287           JUNCTION      0.00   336.55     0  02:14           0        1.19       0.061
  WSF200               JUNCTION      0.00   522.34     0  02:33           0        5.41       0.064
  HS02004901           JUNCTION     18.58    18.58     0  02:08      0.0444      0.0445       4.109
  HS02004881           JUNCTION      7.53    65.87     0  02:14      0.0194       0.207       0.209
  HS02004876           JUNCTION     12.01    59.05     0  02:14      0.0372       0.188       0.285
  HS02004870           JUNCTION     13.30    47.29     0  02:14      0.0367       0.151       0.070
  HS02004862           JUNCTION     10.82    34.86     0  02:14      0.0424       0.114       0.149
  HS02004856           JUNCTION      9.86    24.13     0  02:14      0.0276      0.0735       1.997
  HS02004852           JUNCTION      0.00    14.89     0  02:14           0      0.0459       0.114
  HS02004848           JUNCTION     21.84    21.84     0  02:16      0.0879      0.0879       0.049
  HS02004842           JUNCTION      0.00     7.81     0  02:26           0       0.055      30.937
  HS02004837           JUNCTION     27.68    33.96     0  02:13       0.243       0.285       0.284
  HS02004830           JUNCTION      0.15    34.09     0  02:14     0.00423       0.275       0.450
  HS02004824           JUNCTION     24.54    58.34     0  02:17       0.115       0.389       0.138
  HS02004817           JUNCTION      0.60    58.92     0  02:17      0.0169       0.406       4.287
  HS02004807           JUNCTION     25.01    81.76     0  02:15      0.0674       0.456       0.934
  HS02004802           JUNCTION      0.00    82.40     0  02:16           0       0.452       0.907
  HS02004799           JUNCTION     19.27   217.45     0  02:12      0.0546        0.64       0.357
  HS02004792           JUNCTION     85.88   198.51     0  02:11       0.235       0.586       0.069
  HS02004788           JUNCTION     27.80   115.37     0  02:12       0.123       0.352       0.111
  HS02004785           JUNCTION      0.15    87.98     0  02:11     0.00423       0.231       0.210
  HS02004777           JUNCTION      0.03    88.42     0  02:10    0.000846       0.232       2.287
  HS02004770           JUNCTION     72.88    89.88     0  02:09        0.19       0.232       1.347
  HS02004480           JUNCTION      0.00   256.50     0  02:13           0       0.752       0.103
  HS02004479           JUNCTION      0.00    39.94     0  02:14           0       0.124       0.594
  HS02004478           JUNCTION      0.00   336.53     0  02:14           0        1.19       0.051
  YS02001745           JUNCTION    124.63   235.73     0  03:29        1.26        1.29       0.818
  YS02001748           JUNCTION      0.04   322.20     0  03:28     0.00127        1.28       1.766
  YS02001751           JUNCTION      0.01   355.98     0  03:10     0.00031        1.23       1.900
  YS02001754           JUNCTION      0.26   211.17     0  03:01     0.00733        1.21       1.992
  YS02001762           JUNCTION      0.00   182.55     0  02:28           0        1.38       1.539
  YS02001765           JUNCTION      0.00   181.50     0  02:28           0        1.38       1.788
  YS02001767           JUNCTION      0.54   181.96     0  02:30      0.0151         1.4       2.618
  YS02001770           JUNCTION    159.80   196.46     0  02:28        1.45        1.46       2.171
  YS02001774           JUNCTION      0.00    66.31     0  02:11           0      0.0718      54.028
  YS02001779           JUNCTION      0.01    48.70     0  02:32    0.000141      0.0303      96.758
  YS02001882           JUNCTION      0.00     8.89     0  02:54           0     0.00966      23.963
  YS02001884           JUNCTION      0.00    17.96     0  02:04           0      0.0338      18.545
  YS02001759           JUNCTION    156.22   336.86     0  02:38        1.34        2.68       0.852
  YS02001887           JUNCTION    205.33   210.72     0  02:46        1.58         1.6       0.477
  YS02001890           JUNCTION      0.00   210.59     0  02:39           0        1.56       0.533
  YS02001898           JUNCTION      0.00   209.44     0  02:39           0        1.55       0.165
  YS02001901           JUNCTION      0.00   212.91     0  02:41           0        1.55       0.385
  YS02001904           JUNCTION      0.00   218.76     0  02:41           0        1.55       0.357
  YS02001907           JUNCTION      0.00   414.73     0  02:49           0        3.36       0.681
  YS02001910           JUNCTION      0.00   183.85     0  02:48           0        1.82       0.591
  YS02001915           JUNCTION    111.48   177.67     0  02:51        1.07        1.83       0.278
  YS02001918           JUNCTION      0.00    61.16     0  02:52           0       0.758       0.184
  YS02001619           JUNCTION    108.45   108.45     0  02:49        1.06        1.06       1.134
  YS02001629           JUNCTION      0.00   207.66     0  02:57           0       0.984       2.925
  YS02001641           JUNCTION      0.00   274.54     0  02:30           0        2.13       0.982
  YS02001644           JUNCTION    118.43   387.10     0  02:30        1.21        3.32       0.778
  YS02001652           JUNCTION      0.00   214.87     0  02:27           0        1.11       2.080
  YS02001655           JUNCTION      0.15   372.20     0  02:55     0.00434        1.13       2.074
  YS02001920           JUNCTION      2.87    56.87     0  03:01      0.0809       0.761       0.311
  YS02001923           JUNCTION      0.04    54.00     0  03:01     0.00106        0.68       0.056
  YS02001926           JUNCTION      0.05    54.02     0  03:01     0.00147       0.682       0.386
  YS02001929           JUNCTION     53.99    53.99     0  03:01       0.681       0.681       0.054
  YS02001658           JUNCTION      0.00   462.74     0  03:30           0        1.24       1.578
  YS02001661           JUNCTION      0.00   383.65     0  04:19           0        1.76       0.756
  YS02001664           JUNCTION    145.76   342.06     0  04:20        1.17        1.67       0.319
  YS02001622           JUNCTION      0.00   156.24     0  02:55           0        1.05       3.092
  YS02001633           JUNCTION    120.36   271.28     0  02:30        1.25        2.19       1.470
  YS02001649           JUNCTION      0.00   554.29     0  02:59           0        3.92       0.948
  YS02001757           JUNCTION      0.00   992.75     0  02:28           0        7.68       1.212
  YS02001895           JUNCTION      0.00   210.64     0  02:48           0        1.56       0.268
  YS02001625           JUNCTION      0.00   207.99     0  02:57           0        1.02       3.999
  YS02163301           JUNCTION      0.00   159.37     0  02:30           0       0.973       2.484
  YS02163601           JUNCTION      0.11   271.33     0  02:30      0.0031        2.14       1.403
  YS02164001           JUNCTION      0.00   269.26     0  02:30           0        2.12       0.926
  YS02001647           JUNCTION      0.00   389.70     0  02:30           0        2.88       0.957
  YSB1154              JUNCTION     21.36    21.36     0  02:12      0.0662      0.0675       2.182
  YSB6556              JUNCTION      0.00    21.33     0  02:12           0      0.0685       1.856
  YSB1174              JUNCTION     21.13    21.13     0  02:07      0.0481      0.0491       2.680
  YSB1171              JUNCTION      0.00    39.84     0  02:12           0       0.123       5.412
  YS02006553           JUNCTION      0.00   399.58     0  02:47           0        3.35       0.447
  YS02006561           JUNCTION      0.00   608.70     0  02:49           0        4.74      -0.005
  YS02006556           JUNCTION      0.00   391.60     0  02:49           0        3.35       0.318
  YS02006558           JUNCTION    173.54   576.99     0  02:41        1.44        4.77       0.117
  YS02001783           JUNCTION      0.00   560.46     0  02:44           0        4.74       0.153
  YS02001784           JUNCTION      1.06   564.93     0  02:39      0.0299        4.76       0.223
  YS02001786           JUNCTION      0.06   556.63     0  02:39     0.00159        4.75       0.285
  YS02001788           JUNCTION      0.07   555.85     0  02:39       0.002        4.74       0.291
  YS02001790           JUNCTION      0.15   545.84     0  02:40     0.00437        4.73       0.362
  YS02001791           JUNCTION      0.00   545.83     0  02:40           0        4.71       0.309
  YS02001793           JUNCTION      0.00   545.85     0  02:40           0         4.7       0.321
  WS02004139           JUNCTION      0.32   380.37     0  01:20     0.00905        9.18       0.469
  WSC                  OUTFALL       0.00   836.79     0  02:33           0          15       0.000
  3                    OUTFALL       0.00   446.15     0  00:30           0         0.1       0.000
  4                    OUTFALL       0.00     0.00     0  00:00           0           0       0.000 ltr
  5                    OUTFALL       0.00     0.00     0  00:00           0           0       0.000 ltr
  JK-storage           STORAGE       0.00   740.44     0  02:24           0        4.83       0.335
  CC-storage           STORAGE       0.00   993.00     0  02:28           0        7.58       0.825
  XR-storage           STORAGE     401.86   401.86     0  02:45        7.76        8.36      -8.895
  
  
  **********************
  Node Surcharge Summary
  **********************
  
  Surcharging occurs when water rises above the top of the highest conduit.
  ---------------------------------------------------------------------
                                               Max. Height   Min. Depth
                                   Hours       Above Crown    Below Rim
  Node                 Type      Surcharged         Meters       Meters
  ---------------------------------------------------------------------
  WS02006109           JUNCTION        0.57          0.146        1.674
  WS02006110           JUNCTION        0.05          0.002        1.848
  WS02006112           JUNCTION        0.24          0.038        1.642
  WS02006232           JUNCTION        0.19          0.028        1.452
  WS02006228           JUNCTION        0.56          0.166        2.034
  YS02001748           JUNCTION        3.94          0.206        0.984
  YS02001751           JUNCTION        4.51          0.989        0.211
  YS02001754           JUNCTION        5.18          0.920        0.230
  YS02001762           JUNCTION        5.48          0.982        0.168
  YS02001765           JUNCTION        5.46          0.931        0.169
  YS02001767           JUNCTION        5.41          0.891        0.139
  YS02001770           JUNCTION        5.34          0.850        0.070
  YS02001774           JUNCTION        5.48          0.955        0.095
  YS02001779           JUNCTION        5.11          0.680        0.000
  YS02001759           JUNCTION        5.49          1.015        0.195
  YS02001619           JUNCTION        4.42          0.514        0.096
  YS02001629           JUNCTION        4.44          0.468        0.002
  YS02001641           JUNCTION        5.47          0.937        0.163
  YS02001644           JUNCTION        5.46          0.920        0.000
  YS02001652           JUNCTION        5.23          1.039        0.091
  YS02001655           JUNCTION        4.59          1.100        0.100
  YS02001658           JUNCTION        3.93          1.029        0.271
  YS02001622           JUNCTION        4.52          0.525        0.095
  YS02001633           JUNCTION        5.44          0.918        0.142
  YS02001649           JUNCTION        5.48          0.996        0.054
  YS02001757           JUNCTION        5.53          1.116        0.094
  YS02001625           JUNCTION        5.26          0.780        0.000
  YS02163301           JUNCTION        5.39          0.877        0.153
  YS02163601           JUNCTION        5.47          0.987        0.093
  YS02164001           JUNCTION        5.45          0.918        0.182
  YS02001647           JUNCTION        5.24          0.760        0.140
  YS02006553           JUNCTION        0.06          0.028        1.162
  YS02001783           JUNCTION        0.01          0.057        1.543
  YS02001784           JUNCTION        0.02          0.347        1.143
  YS02001786           JUNCTION        0.01          0.091        1.339
  YS02001788           JUNCTION        0.01          0.394        1.086
  YS02001790           JUNCTION        5.39          1.157        0.000
  YS02001791           JUNCTION        5.40          1.373        0.547
  YS02001793           JUNCTION        5.42          1.913        0.687
  
  
  *********************
  Node Flooding Summary
  *********************
  
  Flooding refers to all water that overflows a node, whether it ponds or not.
  --------------------------------------------------------------------------
                                                             Total   Maximum
                                 Maximum   Time of Max       Flood    Ponded
                        Hours       Rate    Occurrence      Volume     Depth
  Node                 Flooded       LPS   days hr:min    10^6 ltr    Meters
  --------------------------------------------------------------------------
  YS02001779              0.33      3.02      0  04:46       0.001     0.000
  YS02001644              2.04    190.43      0  04:52       0.420     0.000
  YS02001625              0.06      8.77      0  03:43       0.000     0.000
  YS02001790              0.01    125.93      0  02:26       0.000     0.000
  JK-storage              5.38    545.85      0  02:40       4.338     0.000
  
  
  **********************
  Storage Volume Summary
  **********************
  
  --------------------------------------------------------------------------------------------------
                         Average     Avg  Evap Exfil       Maximum     Max    Time of Max    Maximum
                          Volume    Pcnt  Pcnt  Pcnt        Volume    Pcnt     Occurrence    Outflow
  Storage Unit           1000 m3    Full  Loss  Loss       1000 m3    Full    days hr:min        LPS
  --------------------------------------------------------------------------------------------------
  JK-storage               0.267      92     0     0         0.291     100       0  02:27     600.00
  CC-storage               2.803      18     0     0         3.768      24       0  04:46     200.00
  XR-storage               0.276      30     0     0         0.612      66       0  00:21     380.00
  
  
  ***********************
  Outfall Loading Summary
  ***********************
  
  -----------------------------------------------------------
                         Flow       Avg       Max       Total
                         Freq      Flow      Flow      Volume
  Outfall Node           Pcnt       LPS       LPS    10^6 ltr
  -----------------------------------------------------------
  WSC                  100.00    598.11    836.79      15.005
  3                      1.96    254.00    446.15       0.100
  4                      0.00      0.00      0.00       0.000
  5                      0.00      0.00      0.00       0.000
  -----------------------------------------------------------
  System                25.49    852.11    836.79      15.105
  
  
  ********************
  Link Flow Summary
  ********************
  
  -----------------------------------------------------------------------------
                                 Maximum  Time of Max   Maximum    Max/    Max/
                                  |Flow|   Occurrence   |Veloc|    Full    Full
  Link                 Type          LPS  days hr:min     m/sec    Flow   Depth
  -----------------------------------------------------------------------------
  WS02003066WSF200     CONDUIT    522.34     0  02:33      2.70    0.09    0.23
  WS02006287WS02006284 CONDUIT    336.57     0  02:14      1.91    0.16    0.28
  WS02006284WS02006280 CONDUIT    336.72     0  02:14      2.15    0.14    0.25
  WS02006280WS02006229 CONDUIT    336.73     0  02:14      3.46    0.07    0.18
  WS02006229WS02006228 CONDUIT    521.06     0  02:25      1.04    1.73    1.00
  WS02006256WS02006235 CONDUIT    158.12     0  00:23      2.30    1.67    1.00
  WS02006253WS02006251 CONDUIT     67.49     0  02:11      0.59    0.20    0.67
  WS02006252WS02006251 CONDUIT    200.99     0  02:14      1.97    0.74    0.76
  WS02006251WS02006249 CONDUIT    263.61     0  02:18      1.02    0.76    0.67
  WS02006249WS02006248 CONDUIT    262.37     0  02:19      1.10    1.44    0.64
  WS02006248WS02006247 CONDUIT    261.13     0  02:19      1.08    0.57    0.67
  WS02006247WS02006245 CONDUIT    259.61     0  02:19      1.05    2.06    0.70
  WS02006245WS02006243 CONDUIT    257.69     0  02:20      1.15    0.76    0.70
  WS02006243WS02006242 CONDUIT    254.27     0  02:20      1.02    0.54    0.79
  WS02006242WS02006240 CONDUIT    252.31     0  02:32      0.88    1.00    0.85
  WS02006240WS02006239 CONDUIT    254.18     0  02:34      0.92    0.80    0.83
  WS02006239WS02006238 CONDUIT    255.97     0  02:34      0.78    0.82    0.92
  WS02006238WS02006235 CONDUIT    256.96     0  02:34      0.91    0.57    0.94
  WS02006235WS02006234 CONDUIT    258.10     0  02:34      0.93    2.72    0.89
  WS02006234WS02006232 CONDUIT    260.16     0  02:34      1.02    0.53    0.95
  WS02006232WS02006231 CONDUIT    260.51     0  02:35      0.78    0.55    0.93
  WS02006231WS02006230 CONDUIT    262.72     0  02:36      1.13    3.99    0.86
  WS02006230WS02006229 CONDUIT    275.39     0  02:37      0.72    6.13    1.00
  WS02006228WS02006109 CONDUIT    520.93     0  02:25      1.04    2.28    1.00
  WS02006116WS02004401 CONDUIT    527.56     0  02:28      0.77    0.73    0.83
  WS02006115WS02006116 CONDUIT    528.89     0  02:28      0.86    0.68    0.75
  WS02006113WS02006111 CONDUIT    541.97     0  02:26      2.43    0.65    0.46
  WS02006112WS02006115 CONDUIT    531.99     0  02:27      0.74    0.31    0.87
  WS02006111WS02006112 CONDUIT    525.77     0  02:27      1.47    0.25    0.67
  WS02006110WS02006113 CONDUIT    522.29     0  02:26      1.24    0.48    0.78
  WS02006109WS02006110 CONDUIT    522.19     0  02:25      1.04    1.00    1.00
  WS02004411WS02004412 CONDUIT    522.59     0  02:32      0.91    0.74    0.69
  WS02004401WS02004402 CONDUIT    526.67     0  02:28      0.80    0.63    0.85
  WS02004413WS02003067 CONDUIT    522.29     0  02:33      1.09    0.22    0.59
  WS02004412WS02004413 CONDUIT    522.37     0  02:32      0.81    0.35    0.77
  WS02004410WS02004411 CONDUIT    523.07     0  02:31      0.93    0.71    0.68
  WS02004409WS02004410 CONDUIT    524.21     0  02:30      0.96    0.68    0.66
  WS02004407WS02004409 CONDUIT    525.87     0  02:30      1.47    0.19    0.47
  WS02004406WS02004407 CONDUIT    525.94     0  02:30      1.03    0.24    0.62
  WS02004405WS02004406 CONDUIT    526.22     0  02:29      0.68    1.04    0.95
  WS02004404WS02004405 CONDUIT    526.05     0  02:28      0.88    5.15    0.95
  WS02004403WS02004404 CONDUIT    525.94     0  02:28      0.75    0.38    0.92
  WS02004402WS02004403 CONDUIT    526.30     0  02:28      0.79    0.76    0.88
  WS02004139WS02001211 CONDUIT    380.32     0  05:46      0.69    0.48    0.58
  WS02004138WS02004139 CONDUIT    380.05     0  01:20      2.95    0.08    0.43
  WS02003067WS02003066 CONDUIT    522.32     0  02:33      1.19    0.17    0.41
  WS02001213WS02003059 CONDUIT    387.69     0  05:45      0.68    0.64    0.72
  WS02001212WS02001213 CONDUIT    387.68     0  05:46      1.32    0.60    0.42
  WS02001211WS02001212 CONDUIT    387.68     0  05:46      0.78    0.30    0.62
  WS02003072WS02003073 CONDUIT    834.93     0  02:32      1.66    1.80    0.46
  WS02003069WS02003072 CONDUIT    834.90     0  02:32      1.56    0.40    0.48
  WS02003060WS02003069 CONDUIT    834.62     0  02:31      1.81    0.33    0.43
  WS02003059WS02003060 CONDUIT    387.72     0  01:57      0.95    0.25    0.62
  HS02004901HS02004770 CONDUIT     17.40     0  02:11      0.06    0.07    0.39
  HS02004876HS02004881 CONDUIT     59.04     0  02:14      0.84    0.63    0.10
  HS02004870HS02004876 CONDUIT     47.25     0  02:14      0.57    0.03    0.12
  HS02004842HS02004848 CONDUIT      7.81     0  02:26      0.04    0.00    0.29
  HS02004837HS02004842 CONDUIT      8.13     0  02:26      0.42    0.00    0.31
  HS02004830HS02004837 CONDUIT     33.94     0  02:14      0.51    0.03    0.09
  HS02004824HS02004830 CONDUIT     34.08     0  02:15      0.55    0.04    0.09
  HS02004817HS02004824 CONDUIT     58.32     0  02:17      0.19    0.03    0.44
  HS02004770HS02004777 CONDUIT     88.39     0  02:10      0.32    0.16    0.40
  HS02004799HS02004480 CONDUIT    217.10     0  02:12      0.76    0.27    0.41
  HS02004792HS02004799 CONDUIT    198.40     0  02:12      0.87    0.12    0.33
  HS02004788HS02004792 CONDUIT    115.27     0  02:12      1.00    0.08    0.17
  HS02004785HS02004788 CONDUIT     87.87     0  02:12      0.66    0.66    0.19
  HS02004777HS02004785 CONDUIT     87.83     0  02:11      0.38    0.11    0.33
  HS02004480HS02004478 CONDUIT    256.47     0  02:13      1.18    1.08    0.31
  HS02004479HS02004480 CONDUIT     40.31     0  02:14      0.15    0.04    0.39
  HS02004862HS02004870 CONDUIT     34.82     0  02:15      0.58    0.04    0.09
  HS02004848HS02004852 CONDUIT     14.89     0  02:14      0.39    0.02    0.05
  HS02004856HS02004862 CONDUIT     24.08     0  02:14      0.43    0.02    0.08
  HS02004852HS02004856 CONDUIT     14.84     0  02:15      0.19    0.02    0.11
  HS02004802HS02004478 CONDUIT     83.17     0  02:17      0.38    0.07    0.32
  HS02004478WS02006287 CONDUIT    336.55     0  02:14      1.61    0.09    0.23
  HS02004817HS02004807 CONDUIT     59.99     0  02:18      0.15    0.04    0.59
  HS02004807HS02004802 CONDUIT     82.40     0  02:16      0.32    0.16    0.37
  YS02001759YS02001757 CONDUIT    336.89     0  02:38      0.43    0.24    1.00
  YS02001762YS02001759 CONDUIT    183.96     0  02:28      0.23    0.21    1.00
  YS02001765YS02001762 CONDUIT    182.55     0  02:28      0.23    0.17    1.00
  YS02001770YS02001767 CONDUIT    181.42     0  02:30      0.34    0.72    1.00
  YS02001774YS02001770 CONDUIT     66.31     0  02:11      0.16    0.04    1.00
  YS02001779YS02001774 CONDUIT     48.69     0  02:32      0.10    0.02    1.00
  YS02001649YS02001757 CONDUIT    554.40     0  02:59      0.71    0.34    1.00
  YS02001767YS02001765 CONDUIT    181.50     0  02:28      0.26    0.23    1.00
  YS02006561YS02001783 CONDUIT    560.46     0  02:44      1.98    0.29    0.68
  YS02001783YS02001784 CONDUIT    563.87     0  02:39      1.41    0.78    1.00
  YS02001784YS02001785 CONDUIT    556.57     0  02:39      1.51    1.30    1.00
  YS02001788YS02001790 CONDUIT    545.68     0  02:40      2.06    0.40    1.00
  YS02001790YS02001791 CONDUIT    545.83     0  02:40      2.43    0.59    1.00
  YS02001791YS02001793 CONDUIT    545.85     0  02:40      4.82    0.23    1.00
  YS02001910YS02001907 CONDUIT    195.93     0  02:49      0.50    0.11    0.89
  YS02001786YS02001788 CONDUIT    555.78     0  02:39      2.00    1.07    1.00
  YS02001915YS02001910 CONDUIT    183.85     0  02:48      0.45    0.09    0.68
  YS02001918YS02001915 CONDUIT     66.42     0  02:51      0.44    0.04    0.40
  YS02001923YS02001920 CONDUIT     54.00     0  03:01      0.54    0.02    0.20
  YS02001926YS02001923 CONDUIT     53.96     0  03:01      0.61    0.08    0.17
  YS02001929YS02001926 CONDUIT     53.97     0  03:01      0.66    0.03    0.16
  YS02001920YS02001918 CONDUIT     61.16     0  02:52      0.55    0.06    0.26
  YS02001629YS02163301 CONDUIT    159.37     0  02:30      0.20    0.20    1.00
  YS02001619YS02001622 CONDUIT    156.24     0  02:55      0.77    0.23    1.00
  YS02001622YS02001625 CONDUIT    207.99     0  02:57      0.32    0.11    1.00
  YS02001625YS02001629 CONDUIT    207.66     0  02:57      0.32    0.10    1.00
  YS02163301YS02001633 CONDUIT    160.40     0  02:30      0.20    0.15    1.00
  YS02163601YS02164001 CONDUIT    269.26     0  02:30      0.34    0.24    1.00
  YS02164001YS02001641 CONDUIT    274.54     0  02:30      0.35    0.37    1.00
  YS02001641YS02001644 CONDUIT    277.75     0  02:30      0.35    0.90    1.00
  YS02001647YS02001649 CONDUIT    395.33     0  02:29      0.51    0.21    1.00
  YS02006553YS02006556 CONDUIT    391.60     0  02:49      0.51    0.34    0.97
  YS02006556YS02006558 CONDUIT    403.80     0  02:41      0.52    0.32    0.99
  YSB6556YSB1171       CONDUIT     21.80     0  02:15      0.08    0.02    0.66
  YS02001907YS02006553 CONDUIT    399.58     0  02:47      0.44    0.47    1.00
  YS02006558YS02006561 CONDUIT    608.70     0  02:49      3.01    1.35    0.68
  YS02001633YS02163601 CONDUIT    271.22     0  02:30      0.35    0.28    1.00
  YS02001644YS02001647 CONDUIT    389.70     0  02:30      0.51    0.23    1.00
  YS02001745YS02001748 CONDUIT    322.16     0  03:28      1.58    0.12    0.92
  YS02001748YS02001751 CONDUIT    355.97     0  03:10      1.23    0.18    1.00
  YS02001751YS02001754 CONDUIT    210.91     0  03:01      1.07    0.10    1.00
  YS02001754YS02001757 CONDUIT    213.41     0  03:01      0.33    0.09    1.00
  YS02001882YS02001884 CONDUIT      8.89     0  02:54      0.06    0.01    0.62
  YS02001884YS02001887 CONDUIT     17.96     0  02:04      0.07    0.02    0.71
  YS02001890YS02001895 CONDUIT    210.64     0  02:48      0.37    0.10    0.68
  YS02001895YS02001898 CONDUIT    209.44     0  02:39      0.53    0.36    0.54
  YS02001898YS02001901 CONDUIT    212.91     0  02:41      0.42    0.14    0.62
  YS02001901YS02001904 CONDUIT    218.76     0  02:41      0.39    0.34    0.67
  YS02001904YS02001907 CONDUIT    229.17     0  02:40      0.33    0.08    0.83
  YS02001887YS02001890 CONDUIT    210.59     0  02:39      0.33    0.36    0.76
  YS02001652YS02001649 CONDUIT    214.61     0  02:59      0.38    0.11    1.00
  YS02001655YS02001652 CONDUIT    214.87     0  02:27      1.14    0.10    1.00
  YS02001658YS02001655 CONDUIT    372.04     0  02:55      1.42    0.16    1.00
  YS02001661YS02001658 CONDUIT    462.74     0  03:30      1.65    0.18    0.99
  YS02001664YS02001661 CONDUIT    383.65     0  04:19      1.41    0.12    0.70
  YSB1154YSB6556       CONDUIT     21.33     0  02:12      0.19    0.04    0.55
  YSB1174YSB1171       CONDUIT     19.56     0  02:09      0.08    0.03    0.67
  YSB1171HS02004479    CONDUIT     39.94     0  02:14      0.54    0.03    0.52
  HS02004881HS02006253 CONDUIT     65.87     0  02:14      2.04    0.01    0.13
  YS02001793JiankangQianchi CONDUIT    740.44     0  02:24      2.42    0.06    1.00
  YS02001757CaochengTiaoxuchi CONDUIT    993.00     0  02:28      2.26    0.44    1.00
  WSF200WS02003060     CONDUIT    522.36     0  02:33      1.63    0.12    0.33
  1                    CONDUIT    836.79     0  02:33      3.17    0.29    0.37
  2                    CONDUIT      0.00     0  00:00      0.00    0.00    0.00
  3                    CONDUIT    446.15     0  00:30      9.55    0.71    0.63
  4                    CONDUIT      0.00     0  00:00      0.00    0.00    0.00
  CC-Pump-1            PUMP         0.00     0  00:00              0.00
  CC-Pump-2            PUMP       200.00     0  02:14              1.00
  JK-Pump-1            PUMP       300.00     0  00:30              1.00
  JK-Pump-2            PUMP       300.00     0  00:30              1.00
  XR-Pump-1            PUMP        95.00     0  00:30              1.00
  XR-Pump-2            PUMP        95.00     0  00:00              1.00
  XR-Pump-3            PUMP        95.00     0  00:00              1.00
  XR-Pump-4            PUMP        95.00     0  00:30              1.00
  
  
  ***************************
  Flow Classification Summary
  ***************************
  
  -------------------------------------------------------------------------------------
                      Adjusted    ---------- Fraction of Time in Flow Class ---------- 
                       /Actual         Up    Down  Sub   Sup   Up    Down  Norm  Inlet 
  Conduit               Length    Dry  Dry   Dry   Crit  Crit  Crit  Crit  Ltd   Ctrl  
  -------------------------------------------------------------------------------------
  WS02003066WSF200        1.00   0.05  0.02  0.00  0.00  0.94  0.00  0.00  0.69  0.00
  WS02006287WS02006284    1.00   0.04  0.02  0.00  0.68  0.26  0.00  0.00  0.76  0.00
  WS02006284WS02006280    1.00   0.04  0.00  0.00  0.00  0.00  0.00  0.96  0.00  0.00
  WS02006280WS02006229    1.00   0.04  0.00  0.00  0.00  0.00  0.00  0.96  0.00  0.00
  WS02006229WS02006228    1.00   0.00  0.00  0.00  1.00  0.00  0.00  0.00  0.00  0.00
  WS02006256WS02006235    1.00   0.01  0.00  0.00  0.99  0.00  0.00  0.00  0.00  0.00
  WS02006253WS02006251    1.00   0.01  0.03  0.00  0.96  0.00  0.00  0.00  0.00  0.00
  WS02006252WS02006251    1.00   0.07  0.00  0.00  0.00  0.00  0.93  0.00  0.00  0.00
  WS02006251WS02006249    1.00   0.00  0.00  0.00  1.00  0.00  0.00  0.00  0.25  0.00
  WS02006249WS02006248    1.00   0.00  0.00  0.00  0.93  0.00  0.07  0.00  0.00  0.00
  WS02006248WS02006247    1.00   0.00  0.00  0.00  0.97  0.00  0.00  0.03  0.14  0.00
  WS02006247WS02006245    1.00   0.00  0.00  0.00  0.97  0.00  0.00  0.02  0.00  0.00
  WS02006245WS02006243    1.00   0.01  0.00  0.00  0.95  0.00  0.00  0.05  0.01  0.00
  WS02006243WS02006242    1.00   0.01  0.00  0.00  0.99  0.00  0.00  0.00  0.22  0.00
  WS02006242WS02006240    1.00   0.01  0.00  0.00  0.99  0.00  0.00  0.00  0.00  0.00
  WS02006240WS02006239    1.00   0.01  0.00  0.00  0.95  0.00  0.00  0.04  0.01  0.00
  WS02006239WS02006238    1.00   0.01  0.00  0.00  0.99  0.00  0.00  0.00  0.09  0.00
  WS02006238WS02006235    1.00   0.01  0.00  0.00  0.99  0.00  0.00  0.00  0.00  0.00
  WS02006235WS02006234    1.00   0.01  0.00  0.00  0.96  0.00  0.04  0.00  0.00  0.00
  WS02006234WS02006232    1.00   0.01  0.00  0.00  0.99  0.00  0.00  0.00  0.06  0.00
  WS02006232WS02006231    1.00   0.01  0.00  0.00  0.99  0.00  0.00  0.00  0.00  0.00
  WS02006231WS02006230    1.00   0.01  0.00  0.00  0.18  0.00  0.81  0.00  0.00  0.00
  WS02006230WS02006229    1.00   0.00  0.00  0.00  0.99  0.00  0.00  0.01  0.00  0.00
  WS02006228WS02006109    1.00   0.00  0.00  0.00  1.00  0.00  0.00  0.00  0.00  0.00
  WS02006116WS02004401    1.00   0.03  0.00  0.00  0.97  0.00  0.00  0.00  0.00  0.00
  WS02006115WS02006116    1.00   0.03  0.00  0.00  0.97  0.00  0.00  0.00  0.00  0.00
  WS02006113WS02006111    1.00   0.02  0.00  0.00  0.00  0.98  0.00  0.00  0.14  0.00
  WS02006112WS02006115    1.00   0.02  0.01  0.00  0.97  0.00  0.00  0.00  0.00  0.00
  WS02006111WS02006112    1.00   0.02  0.00  0.00  0.97  0.00  0.00  0.00  0.94  0.00
  WS02006110WS02006113    1.00   0.00  0.02  0.00  0.98  0.00  0.00  0.00  0.00  0.00
  WS02006109WS02006110    1.00   0.00  0.00  0.00  1.00  0.00  0.00  0.00  0.00  0.00
  WS02004411WS02004412    1.00   0.04  0.00  0.00  0.96  0.00  0.00  0.00  0.00  0.00
  WS02004401WS02004402    1.00   0.03  0.00  0.00  0.97  0.00  0.00  0.00  0.00  0.00
  WS02004413WS02003067    1.00   0.04  0.01  0.00  0.00  0.00  0.94  0.00  0.00  0.00
  WS02004412WS02004413    1.00   0.04  0.00  0.00  0.96  0.00  0.00  0.00  0.03  0.00
  WS02004410WS02004411    1.00   0.04  0.00  0.00  0.96  0.00  0.00  0.00  0.03  0.00
  WS02004409WS02004410    1.00   0.04  0.00  0.00  0.96  0.00  0.00  0.00  0.03  0.00
  WS02004407WS02004409    1.00   0.04  0.00  0.00  0.96  0.00  0.00  0.00  0.86  0.00
  WS02004406WS02004407    1.00   0.00  0.04  0.00  0.96  0.00  0.00  0.00  0.00  0.00
  WS02004405WS02004406    1.00   0.00  0.00  0.00  1.00  0.00  0.00  0.00  0.04  0.00
  WS02004404WS02004405    1.00   0.00  0.00  0.00  1.00  0.00  0.00  0.00  0.00  0.00
  WS02004403WS02004404    1.00   0.00  0.03  0.00  0.97  0.00  0.00  0.00  0.01  0.00
  WS02004402WS02004403    1.00   0.03  0.00  0.00  0.97  0.00  0.00  0.00  0.00  0.00
  WS02004139WS02001211    1.00   0.00  0.00  0.00  1.00  0.00  0.00  0.00  0.00  0.00
  WS02004138WS02004139    1.00   0.00  0.00  0.00  1.00  0.00  0.00  0.00  1.00  0.00
  WS02003067WS02003066    1.00   0.06  0.00  0.00  0.94  0.00  0.00  0.00  0.00  0.00
  WS02001213WS02003059    1.00   0.00  0.00  0.00  1.00  0.00  0.00  0.00  0.00  0.00
  WS02001212WS02001213    1.00   0.00  0.00  0.00  0.93  0.00  0.07  0.00  0.00  0.00
  WS02001211WS02001212    1.00   0.00  0.00  0.00  1.00  0.00  0.00  0.00  0.00  0.00
  WS02003072WS02003073    1.00   0.00  0.00  0.00  0.00  0.00  0.00  1.00  0.00  0.00
  WS02003069WS02003072    1.00   0.00  0.00  0.00  1.00  0.00  0.00  0.00  0.15  0.00
  WS02003060WS02003069    1.00   0.00  0.00  0.00  1.00  0.00  0.00  0.00  0.02  0.00
  WS02003059WS02003060    1.00   0.00  0.00  0.00  1.00  0.00  0.00  0.00  0.01  0.00
  HS02004901HS02004770    1.00   0.04  0.00  0.00  0.96  0.00  0.00  0.00  0.02  0.00
  HS02004876HS02004881    1.00   0.00  0.00  0.00  0.97  0.02  0.00  0.00  0.00  0.00
  HS02004870HS02004876    1.00   0.00  0.00  0.00  1.00  0.00  0.00  0.00  0.95  0.00
  HS02004842HS02004848    1.00   0.00  0.04  0.00  0.96  0.00  0.00  0.00  0.67  0.00
  HS02004837HS02004842    1.00   0.00  0.00  0.00  1.00  0.00  0.00  0.00  0.11  0.00
  HS02004830HS02004837    1.00   0.00  0.00  0.00  1.00  0.00  0.00  0.00  0.99  0.00
  HS02004824HS02004830    1.00   0.00  0.00  0.00  1.00  0.00  0.00  0.00  0.00  0.00
  HS02004817HS02004824    1.00   0.00  0.00  0.00  1.00  0.00  0.00  0.00  1.00  0.00
  HS02004770HS02004777    1.00   0.00  0.04  0.00  0.96  0.00  0.00  0.00  0.07  0.00
  HS02004799HS02004480    1.00   0.00  0.01  0.00  0.95  0.00  0.05  0.00  0.00  0.00
  HS02004792HS02004799    1.00   0.00  0.00  0.00  1.00  0.00  0.00  0.00  0.98  0.00
  HS02004788HS02004792    1.00   0.00  0.00  0.00  1.00  0.00  0.00  0.00  0.98  0.00
  HS02004785HS02004788    1.00   0.00  0.00  0.00  1.00  0.00  0.00  0.00  0.00  0.00
  HS02004777HS02004785    1.00   0.00  0.00  0.00  1.00  0.00  0.00  0.00  0.20  0.00
  HS02004480HS02004478    1.00   0.04  0.00  0.00  0.74  0.00  0.00  0.22  0.00  0.00
  HS02004479HS02004480    1.00   0.01  0.00  0.00  0.99  0.00  0.00  0.00  0.16  0.00
  HS02004862HS02004870    1.00   0.00  0.00  0.00  1.00  0.00  0.00  0.00  0.05  0.00
  HS02004848HS02004852    1.00   0.04  0.00  0.00  0.96  0.00  0.00  0.00  0.72  0.00
  HS02004856HS02004862    1.00   0.00  0.06  0.00  0.94  0.00  0.00  0.00  0.75  0.00
  HS02004852HS02004856    1.00   0.04  0.01  0.00  0.95  0.00  0.00  0.00  0.83  0.00
  HS02004802HS02004478    1.00   0.04  0.00  0.00  0.95  0.00  0.00  0.00  0.01  0.00
  HS02004478WS02006287    1.00   0.05  0.00  0.00  0.84  0.11  0.00  0.00  0.73  0.00
  HS02004817HS02004807    1.00   0.00  0.04  0.00  0.96  0.00  0.00  0.00  0.00  0.00
  HS02004807HS02004802    1.00   0.04  0.00  0.00  0.96  0.00  0.00  0.00  0.01  0.00
  YS02001759YS02001757    1.00   0.00  0.00  0.00  1.00  0.00  0.00  0.00  0.17  0.00
  YS02001762YS02001759    1.00   0.00  0.00  0.00  1.00  0.00  0.00  0.00  0.04  0.00
  YS02001765YS02001762    1.00   0.00  0.00  0.00  1.00  0.00  0.00  0.00  0.22  0.00
  YS02001770YS02001767    1.00   0.00  0.00  0.00  1.00  0.00  0.00  0.00  0.00  0.00
  YS02001774YS02001770    1.00   0.00  0.05  0.00  0.95  0.00  0.00  0.00  0.06  0.00
  YS02001779YS02001774    1.00   0.00  0.00  0.00  1.00  0.00  0.00  0.00  0.26  0.00
  YS02001649YS02001757    1.00   0.00  0.00  0.00  1.00  0.00  0.00  0.00  0.19  0.00
  YS02001767YS02001765    1.00   0.00  0.00  0.00  1.00  0.00  0.00  0.00  0.01  0.00
  YS02006561YS02001783    1.00   0.06  0.00  0.00  0.88  0.05  0.00  0.00  0.70  0.00
  YS02001783YS02001784    1.00   0.00  0.06  0.00  0.94  0.00  0.00  0.00  0.00  0.00
  YS02001784YS02001785    1.00   0.00  0.00  0.00  1.00  0.00  0.00  0.00  0.24  0.00
  YS02001788YS02001790    1.00   0.00  0.00  0.00  0.96  0.04  0.00  0.00  0.26  0.00
  YS02001790YS02001791    1.00   0.00  0.00  0.00  0.89  0.11  0.00  0.00  0.03  0.00
  YS02001791YS02001793    1.00   0.00  0.00  0.00  0.89  0.11  0.00  0.00  0.00  0.00
  YS02001910YS02001907    1.00   0.00  0.00  0.00  0.99  0.00  0.00  0.00  0.13  0.00
  YS02001786YS02001788    1.00   0.00  0.00  0.00  0.95  0.05  0.00  0.00  0.00  0.00
  YS02001915YS02001910    1.00   0.00  0.00  0.00  1.00  0.00  0.00  0.00  0.23  0.00
  YS02001918YS02001915    1.00   0.00  0.00  0.00  1.00  0.00  0.00  0.00  0.66  0.00
  YS02001923YS02001920    1.00   0.00  0.00  0.00  1.00  0.00  0.00  0.00  1.00  0.00
  YS02001926YS02001923    1.00   0.00  0.03  0.00  0.00  0.00  0.97  0.00  0.00  0.00
  YS02001929YS02001926    1.00   0.00  0.04  0.00  0.96  0.00  0.00  0.00  0.87  0.00
  YS02001920YS02001918    1.00   0.00  0.00  0.00  1.00  0.00  0.00  0.00  0.00  0.00
  YS02001629YS02163301    1.00   0.06  0.00  0.00  0.94  0.00  0.00  0.00  0.00  0.00
  YS02001619YS02001622    1.00   0.04  0.00  0.00  0.96  0.00  0.00  0.00  0.00  0.00
  YS02001622YS02001625    1.00   0.04  0.00  0.00  0.96  0.00  0.00  0.00  0.12  0.00
  YS02001625YS02001629    1.00   0.04  0.02  0.00  0.92  0.00  0.01  0.00  0.00  0.00
  YS02163301YS02001633    1.00   0.00  0.06  0.00  0.94  0.00  0.00  0.00  0.00  0.00
  YS02163601YS02164001    1.00   0.00  0.03  0.00  0.97  0.00  0.00  0.00  0.00  0.00
  YS02164001YS02001641    1.00   0.00  0.03  0.00  0.97  0.00  0.00  0.00  0.07  0.00
  YS02001641YS02001644    1.00   0.00  0.00  0.00  1.00  0.00  0.00  0.00  0.00  0.00
  YS02001647YS02001649    1.00   0.00  0.06  0.00  0.94  0.00  0.00  0.00  0.01  0.00
  YS02006553YS02006556    1.00   0.00  0.00  0.00  1.00  0.00  0.00  0.00  0.03  0.00
  YS02006556YS02006558    1.00   0.00  0.00  0.00  1.00  0.00  0.00  0.00  0.00  0.00
  YSB6556YSB1171          1.00   0.01  0.03  0.00  0.96  0.00  0.00  0.00  0.00  0.00
  YS02001907YS02006553    1.00   0.00  0.00  0.00  1.00  0.00  0.00  0.00  0.00  0.00
  YS02006558YS02006561    1.00   0.06  0.00  0.00  0.00  0.94  0.00  0.00  0.58  0.00
  YS02001633YS02163601    1.00   0.00  0.00  0.00  1.00  0.00  0.00  0.00  0.19  0.00
  YS02001644YS02001647    1.00   0.00  0.06  0.00  0.94  0.00  0.00  0.00  0.00  0.00
  YS02001745YS02001748    1.00   0.00  0.00  0.00  0.90  0.00  0.00  0.09  0.06  0.00
  YS02001748YS02001751    1.00   0.00  0.00  0.00  0.98  0.02  0.00  0.00  0.23  0.00
  YS02001751YS02001754    1.00   0.00  0.00  0.00  0.93  0.00  0.00  0.07  0.01  0.00
  YS02001754YS02001757    1.00   0.00  0.00  0.00  1.00  0.00  0.00  0.00  0.26  0.00
  YS02001882YS02001884    1.00   0.05  0.00  0.00  0.94  0.00  0.00  0.00  0.00  0.00
  YS02001884YS02001887    1.00   0.02  0.01  0.00  0.96  0.00  0.00  0.00  0.00  0.00
  YS02001890YS02001895    1.00   0.00  0.06  0.00  0.94  0.00  0.00  0.00  0.00  0.00
  YS02001895YS02001898    1.00   0.06  0.00  0.00  0.93  0.00  0.01  0.00  0.00  0.00
  YS02001898YS02001901    1.00   0.06  0.00  0.00  0.94  0.00  0.00  0.00  0.02  0.00
  YS02001901YS02001904    1.00   0.06  0.00  0.00  0.94  0.00  0.00  0.00  0.00  0.00
  YS02001904YS02001907    1.00   0.00  0.06  0.00  0.94  0.00  0.00  0.00  0.00  0.00
  YS02001887YS02001890    1.00   0.00  0.00  0.00  0.99  0.00  0.01  0.00  0.00  0.00
  YS02001652YS02001649    1.00   0.00  0.00  0.00  1.00  0.00  0.00  0.00  0.25  0.00
  YS02001655YS02001652    1.00   0.00  0.00  0.00  0.93  0.00  0.00  0.07  0.01  0.00
  YS02001658YS02001655    1.00   0.00  0.05  0.00  0.93  0.02  0.00  0.00  0.07  0.00
  YS02001661YS02001658    1.00   0.05  0.00  0.00  0.90  0.05  0.00  0.00  0.05  0.00
  YS02001664YS02001661    1.00   0.04  0.00  0.00  0.86  0.10  0.00  0.00  0.32  0.00
  YSB1154YSB6556          1.00   0.04  0.00  0.00  0.96  0.00  0.00  0.00  0.02  0.00
  YSB1174YSB1171          1.00   0.01  0.02  0.00  0.97  0.00  0.00  0.00  0.00  0.00
  YSB1171HS02004479       1.00   0.01  0.00  0.00  0.98  0.00  0.00  0.01  0.13  0.00
  HS02004881HS02006253    1.00   0.01  0.00  0.00  0.92  0.00  0.00  0.07  0.72  0.00
  YS02001793JiankangQianchi    1.00   0.00  0.00  0.00  0.97  0.03  0.00  0.00  0.18  0.00
  YS02001757CaochengTiaoxuchi    1.00   0.00  0.07  0.00  0.92  0.01  0.00  0.00  0.00  0.00
  WSF200WS02003060        1.00   0.00  0.05  0.00  0.95  0.00  0.00  0.00  0.63  0.00
  1                       1.00   0.00  0.00  0.00  0.00  1.00  0.00  0.00  0.32  0.00
  2                       1.00   1.00  0.00  0.00  0.00  0.00  0.00  0.00  0.00  0.00
  3                       1.00   0.98  0.00  0.00  0.00  0.02  0.00  0.00  0.00  0.00
  4                       1.00   1.00  0.00  0.00  0.00  0.00  0.00  0.00  0.00  0.00
  
  
  *************************
  Conduit Surcharge Summary
  *************************
  
  ----------------------------------------------------------------------------
                                                           Hours        Hours 
                         --------- Hours Full --------   Above Full   Capacity
  Conduit                Both Ends  Upstream  Dnstream   Normal Flow   Limited
  ----------------------------------------------------------------------------
  WS02006229WS02006228        0.56      0.59      0.56      1.05         0.56
  WS02006256WS02006235        5.67      5.67      6.69      0.14         0.01
  WS02006249WS02006248        0.01      0.01      0.01      5.60         0.01
  WS02006247WS02006245        0.01      0.01      0.01      5.60         0.01
  WS02006242WS02006240        0.01      0.01      0.01      0.08         0.01
  WS02006235WS02006234        0.01      0.01      0.01      5.66         0.01
  WS02006234WS02006232        0.01      0.01      0.19      0.01         0.01
  WS02006232WS02006231        0.01      0.01      0.19      0.01         0.01
  WS02006231WS02006230        0.01      0.01      0.01      5.66         0.01
  WS02006230WS02006229        0.79      0.88      0.79      5.77         0.79
  WS02006228WS02006109        0.57      0.67      0.57      2.55         0.57
  WS02006112WS02006115        0.01      0.01      0.24      0.01         0.01
  WS02006111WS02006112        0.01      0.01      1.16      0.01         0.01
  WS02006110WS02006113        0.01      0.01      0.62      0.01         0.01
  WS02006109WS02006110        0.05      0.05      0.67      0.06         0.01
  WS02004405WS02004406        0.01      0.01      0.01      0.17         0.01
  WS02004404WS02004405        0.01      0.01      0.01      5.69         0.01
  WS02003072WS02003073        0.01      0.01      0.01      5.59         0.01
  HS02004480HS02004478        0.01      0.01      0.01      0.15         0.01
  YS02001759YS02001757        5.49      5.49      5.53      0.01         0.01
  YS02001762YS02001759        5.48      5.48      5.49      0.01         0.01
  YS02001765YS02001762        5.46      5.46      5.48      0.01         0.01
  YS02001770YS02001767        5.39      5.40      5.41      0.01         0.59
  YS02001774YS02001770        5.34      5.34      5.48      0.01         0.01
  YS02001779YS02001774        5.10      5.10      5.48      0.01         0.01
  YS02001649YS02001757        5.48      5.48      5.53      0.01         0.01
  YS02001767YS02001765        5.41      5.41      5.46      0.01         0.01
  YS02006561YS02001783        0.01      0.01      0.01      0.01         0.01
  YS02001783YS02001784        0.01      0.01      0.02      0.01         0.01
  YS02001784YS02001785        0.01      0.02      0.01      0.96         0.01
  YS02001788YS02001790        0.01      0.01      5.39      0.01         0.01
  YS02001790YS02001791        5.39      5.39      5.40      0.01         0.01
  YS02001791YS02001793        5.40      5.40      5.43      0.01         0.01
  YS02001786YS02001788        0.01      0.01      0.01      0.52         0.01
  YS02001629YS02163301        5.35      5.35      5.39      0.01         0.01
  YS02001619YS02001622        4.41      4.42      4.52      0.01         0.01
  YS02001622YS02001625        4.52      4.52      5.26      0.01         0.01
  YS02001625YS02001629        4.44      4.44      5.26      0.01         0.01
  YS02163301YS02001633        5.39      5.39      5.46      0.01         0.01
  YS02163601YS02164001        5.45      5.45      5.47      0.01         0.01
  YS02164001YS02001641        5.45      5.45      5.47      0.01         0.02
  YS02001641YS02001644        5.46      5.47      5.46      0.01         0.79
  YS02001647YS02001649        5.24      5.24      5.48      0.01         0.01
  YS02006553YS02006556        0.01      0.01      0.05      0.01         0.01
  YS02006556YS02006558        0.01      0.01      0.25      0.01         0.01
  YS02001907YS02006553        0.99      0.99      1.19      0.01         0.01
  YS02006558YS02006561        0.01      0.01      0.01      0.83         0.01
  YS02001633YS02163601        5.44      5.44      5.47      0.01         0.01
  YS02001644YS02001647        5.24      5.24      5.46      0.01         0.01
  YS02001745YS02001748        0.01      0.01      3.94      0.01         0.01
  YS02001748YS02001751        4.13      4.13      4.51      0.01         0.01
  YS02001751YS02001754        4.51      4.51      5.18      0.01         0.01
  YS02001754YS02001757        5.24      5.24      5.53      0.01         0.01
  YS02001904YS02001907        0.01      0.01      0.03      0.01         0.01
  YS02001652YS02001649        5.26      5.26      5.48      0.01         0.01
  YS02001655YS02001652        4.59      4.59      5.23      0.01         0.01
  YS02001658YS02001655        3.93      3.93      4.59      0.01         0.01
  YS02001661YS02001658        0.01      0.01      3.93      0.01         0.01
  YS02001664YS02001661        0.01      0.01      0.42      0.01         0.01
  YS02001793JiankangQianchi        5.42      5.42      6.07      0.01         0.01
  YS02001757CaochengTiaoxuchi        4.19      4.19      5.53      0.01         0.01
  
  
  ***************
  Pumping Summary
  ***************
  
  ---------------------------------------------------------------------------------------------------------
                                                  Min       Avg       Max     Total     Power    % Time Off
                        Percent   Number of      Flow      Flow      Flow    Volume     Usage    Pump Curve
  Pump                 Utilized   Start-Ups       LPS       LPS       LPS  10^6 ltr     Kw-hr    Low   High
  ---------------------------------------------------------------------------------------------------------
  CC-Pump-1                0.00           0      0.00      0.00      0.00     0.000      0.00    0.0    0.0
  CC-Pump-2               72.17           1      0.00    199.36    200.00     4.046      5.53    0.0    9.4
  JK-Pump-1               12.76           1      0.00    100.95    300.00     0.094      1.48    0.0    0.0
  JK-Pump-2               12.76           1      0.00    100.95    300.00     0.094      1.48    0.0    0.0
  XR-Pump-1               61.69           2      0.00     89.05     95.00     1.567     33.41    0.0    0.0
  XR-Pump-2               91.49           2      0.00     93.53     95.00     2.394     46.96    0.0    0.0
  XR-Pump-3              100.00           1      0.00     95.00     95.00     2.679     51.13    0.0    0.0
  XR-Pump-4               95.73           1      0.00     94.31     95.00     2.536     49.44    0.0    0.0
  

  Analysis begun on:  Thu Jan  6 00:23:11 2022
  Analysis ended on:  Thu Jan  6 00:23:13 2022
  Total elapsed time: 00:00:02