
  EPA STORM WATER MANAGEMENT MODEL - VERSION 5.1 (Build 5.3.0.dev0)
  --------------------------------------------------------------

  WARNING 04: minimum elevation drop used for Conduit WS02004404WS02004405
  WARNING 03: negative offset ignored for Link YS02001904YS02001907
  
  *********************************************************
  NOTE: The summary statistics displayed in this report are
  based on results found at every computational time step,  
  not just on results from each reporting time step.
  *********************************************************
  
  ****************
  Analysis Options
  ****************
  Flow Units ............... LPS
  Process Models:
    Rainfall/Runoff ........ YES
    RDII ................... NO
    Snowmelt ............... NO
    Groundwater ............ NO
    Flow Routing ........... YES
    Ponding Allowed ........ NO
    Water Quality .......... NO
  Infiltration Method ...... HORTON
  Flow Routing Method ...... DYNWAVE
  Surcharge Method ......... EXTRAN
  Starting Date ............ 08/28/2015 08:00:00
  Ending Date .............. 08/28/2015 15:50:00
  Antecedent Dry Days ...... 8.0
  Report Time Step ......... 00:01:00
  Wet Time Step ............ 00:01:00
  Dry Time Step ............ 00:01:00
  Routing Time Step ........ 5.00 sec
  Variable Time Step ....... YES
  Maximum Trials ........... 8
  Number of Threads ........ 4
  Head Tolerance ........... 0.001500 m
  
  
  **************************        Volume         Depth
  Runoff Quantity Continuity     hectare-m            mm
  **************************     ---------       -------
  Total Precipitation ......         3.147         6.891
  Evaporation Loss .........         0.000         0.000
  Infiltration Loss ........         0.796         1.742
  Surface Runoff ...........         1.432         3.135
  Final Storage ............         0.920         2.015
  Continuity Error (%) .....        -0.018
  
  
  **************************        Volume        Volume
  Flow Routing Continuity        hectare-m      10^6 ltr
  **************************     ---------     ---------
  Dry Weather Inflow .......         0.616         6.165
  Wet Weather Inflow .......         1.431        14.311
  Groundwater Inflow .......         0.000         0.000
  RDII Inflow ..............         0.000         0.000
  External Inflow ..........         0.102         1.024
  External Outflow .........         1.571        15.711
  Flooding Loss ............         0.364         3.638
  Evaporation Loss .........         0.000         0.000
  Exfiltration Loss ........         0.000         0.000
  Initial Stored Volume ....         0.076         0.761
  Final Stored Volume ......         0.487         4.872
  Continuity Error (%) .....        -8.811
  
  
  *************************
  Highest Continuity Errors
  *************************
  Node YS02001774 (27.98%)
  Node HS02004842 (25.41%)
  Node YS02001884 (20.04%)
  Node YSB1171 (5.83%)
  Node HS02004901 (4.52%)
  
  
  ***************************
  Time-Step Critical Elements
  ***************************
  Link WS02006252WS02006251 (92.16%)
  Link WS02006280WS02006229 (2.22%)
  Link 3 (1.96%)
  
  
  ********************************
  Highest Flow Instability Indexes
  ********************************
  Link WS02006113WS02006111 (52)
  Link WS02006111WS02006112 (32)
  Link YS02001793JiankangQianchi (29)
  Link YS02001791YS02001793 (26)
  Link YS02001790YS02001791 (21)
  
  
  *************************
  Routing Time Step Summary
  *************************
  Minimum Time Step           :     0.43 sec
  Average Time Step           :     0.88 sec
  Maximum Time Step           :     5.00 sec
  Percent in Steady State     :    -0.00
  Average Iterations per Step :     3.84
  Percent Not Converging      :    21.17
  
  
  ***************************
  Subcatchment Runoff Summary
  ***************************
  
  ------------------------------------------------------------------------------------------------------------------------------
                            Total      Total      Total      Total     Imperv       Perv      Total       Total     Peak  Runoff
                           Precip      Runon       Evap      Infil     Runoff     Runoff     Runoff      Runoff   Runoff   Coeff
  Subcatchment                 mm         mm         mm         mm         mm         mm         mm    10^6 ltr      LPS
  ------------------------------------------------------------------------------------------------------------------------------
  sub0                       6.89       0.00       0.00       0.48       5.14       0.00       5.14        0.00     1.72   0.746
  sub1                       6.89       0.00       0.00       0.76       4.88       0.00       4.88        0.03     9.27   0.708
  sub2                       6.89       0.00       0.00       2.55       3.43       0.00       3.43        0.03     8.25   0.498
  sub3                       6.89       0.00       0.00       2.55       3.40       0.00       3.40        0.08    17.12   0.493
  sub4                       6.89       0.00       0.00       0.76       4.73       0.00       4.73        0.10    19.36   0.687
  sub5                       6.89       0.00       0.00       0.48       5.10       0.00       5.10        0.06    16.48   0.740
  sub7                       6.89       0.00       0.00       0.62       5.02       0.00       5.02        0.02     5.74   0.728
  sub8                       6.89       0.00       0.00       0.62       5.01       0.00       5.01        0.03    10.18   0.727
  sub9                       6.89       0.00       0.00       0.62       5.00       0.00       5.00        0.02     7.56   0.726
  sub10                      6.89       0.00       0.00       0.55       5.05       0.00       5.05        0.06    16.42   0.733
  sub11                      6.89       0.00       0.00       0.55       5.06       0.00       5.06        0.06    19.13   0.735
  sub12                      6.89       0.00       0.00       0.90       4.81       0.00       4.81        0.04    15.99   0.697
  sub14                      6.89       0.00       0.00       0.62       5.00       0.00       5.00        0.05    14.78   0.726
  sub15                      6.89       0.00       0.00       2.07       3.84       0.00       3.84        0.07    20.07   0.558
  sub16                      6.89       0.00       0.00       2.27       3.70       0.00       3.70        0.04    14.12   0.537
  sub17                      6.89       0.00       0.00       2.20       3.75       0.00       3.75        0.03    11.42   0.544
  sub22                      6.89       0.00       0.00       2.96       3.14       0.00       3.14        0.20    65.39   0.456
  sub23                      6.89       0.00       0.00       2.55       3.47       0.00       3.47        0.17    55.59   0.504
  sub60                      6.89       0.00       0.00       0.83       3.52       0.00       3.52        1.07   103.27   0.511
  sub61                      6.89       0.00       0.00       1.17       3.72       0.00       3.72        1.15   128.06   0.540
  sub62                      6.89       0.00       0.00       0.55       4.00       0.00       4.00        1.23   131.31   0.581
  sub63                      6.89       0.00       0.00       2.00       3.30       0.00       3.30        1.00   118.97   0.479
  sub64                      6.89       0.00       0.00       1.03       3.37       0.00       3.37        1.02    98.15   0.488
  sub65                      6.89       0.00       0.00       0.90       3.41       0.00       3.41        1.05    99.66   0.495
  sub66                      6.89       0.00       0.00       2.00       2.93       0.00       2.93        0.90    89.65   0.425
  sub67                      6.89       0.00       0.00       0.55       4.36       0.00       4.36        1.35   166.79   0.633
  sub68                      6.89       0.00       0.00       0.96       3.95       0.00       3.95        1.21   141.17   0.573
  sub69                      6.89       0.00       0.00       1.03       4.22       0.00       4.22        0.99   138.50   0.612
  sub70                      6.89       4.31       0.00       3.81       5.29       0.00       5.29        1.21   116.43   0.473
  sub71                      6.89       0.00       0.00       0.55       3.84       0.00       3.84        0.91    92.03   0.558
  sub72                      6.89       0.00       0.00       0.48       2.78       0.00       2.78        0.57    44.19   0.404
  sub73                      6.89       5.15       0.00       4.09       5.48       0.00       5.48        1.29   100.82   0.455
  sub74                      6.89       0.00       0.00       5.17       1.27       0.00       1.27        0.51    76.91   0.184
  
  
  ******************
  Node Depth Summary
  ******************
  
  ---------------------------------------------------------------------------------
                                 Average  Maximum  Maximum  Time of Max    Reported
                                   Depth    Depth      HGL   Occurrence   Max Depth
  Node                 Type       Meters   Meters   Meters  days hr:min      Meters
  ---------------------------------------------------------------------------------
  WS02001211           JUNCTION     0.75     0.79     5.62     0  02:43        0.79
  WS02001212           JUNCTION     0.46     0.50     5.56     0  02:42        0.50
  WS02001213           JUNCTION     0.69     0.74     5.50     0  02:41        0.74
  WS02003069           JUNCTION     0.46     0.55     5.14     0  02:40        0.55
  WS02003072           JUNCTION     0.52     0.61     4.98     0  02:41        0.61
  WS02003073           JUNCTION     0.31     0.38     4.44     0  02:42        0.38
  WS02003060           JUNCTION     0.41     0.49     5.42     0  02:40        0.49
  WS02003066           JUNCTION     0.21     0.28     5.83     0  02:38        0.28
  WS02003059           JUNCTION     0.73     0.79     5.48     0  02:41        0.79
  WS02003067           JUNCTION     0.52     0.67     5.99     0  02:38        0.67
  WS02004401           JUNCTION     0.60     0.79     6.79     0  02:34        0.79
  WS02004402           JUNCTION     0.63     0.82     6.78     0  02:34        0.82
  WS02004403           JUNCTION     0.66     0.84     6.77     0  02:34        0.84
  WS02004404           JUNCTION     0.73     0.91     6.76     0  02:34        0.91
  WS02004406           JUNCTION     0.74     0.91     6.74     0  02:35        0.91
  WS02004409           JUNCTION     0.42     0.61     6.38     0  02:37        0.61
  WS02004410           JUNCTION     0.44     0.63     6.35     0  02:37        0.63
  WS02004411           JUNCTION     0.46     0.64     6.32     0  02:38        0.64
  WS02004412           JUNCTION     0.48     0.65     6.29     0  02:38        0.65
  WS02004413           JUNCTION     0.64     0.81     6.28     0  02:38        0.81
  WS02004405           JUNCTION     0.73     0.91     6.76     0  02:34        0.91
  WS02006109           JUNCTION     0.67     0.88     7.50     0  02:30        0.88
  WS02006110           JUNCTION     0.67     0.86     7.45     0  02:30        0.86
  WS02006111           JUNCTION     0.19     0.26     6.97     0  02:32        0.26
  WS02006112           JUNCTION     0.75     0.98     6.86     0  02:34        0.98
  WS02006113           JUNCTION     0.29     0.42     7.31     0  02:30        0.42
  WS02006115           JUNCTION     0.48     0.69     6.82     0  02:34        0.69
  WS02006116           JUNCTION     0.57     0.77     6.81     0  02:34        0.77
  WS02006230           JUNCTION     0.59     0.87     7.61     0  02:30        0.87
  WS02006231           JUNCTION     0.39     0.53     7.65     0  02:31        0.53
  WS02006232           JUNCTION     0.51     0.65     7.69     0  02:31        0.65
  WS02006234           JUNCTION     0.41     0.55     7.71     0  02:32        0.55
  WS02006235           JUNCTION     0.44     0.57     7.73     0  02:32        0.57
  WS02006238           JUNCTION     0.47     0.59     7.74     0  02:32        0.59
  WS02006240           JUNCTION     0.39     0.50     7.80     0  02:33        0.50
  WS02006242           JUNCTION     0.46     0.57     7.84     0  02:33        0.57
  WS02006243           JUNCTION     0.35     0.45     7.87     0  02:33        0.45
  WS02006245           JUNCTION     0.35     0.44     7.92     0  02:33        0.44
  WS02006247           JUNCTION     0.38     0.47     7.97     0  02:32        0.47
  WS02006248           JUNCTION     0.34     0.41     8.00     0  02:31        0.41
  WS02006249           JUNCTION     0.38     0.45     8.05     0  02:30        0.45
  WS02006239           JUNCTION     0.43     0.56     7.76     0  02:33        0.56
  WS02006251           JUNCTION     0.37     0.44     8.11     0  02:24        0.44
  WS02006252           JUNCTION     0.32     0.35     8.59     0  02:17        0.35
  WS02006253           JUNCTION     0.39     0.47     8.11     0  02:24        0.47
  WS02006256           JUNCTION     0.68     1.19     8.12     0  00:20        1.18
  WS02004138           JUNCTION     0.19     0.19     7.44     0  01:10        0.19
  WS02004407           JUNCTION     0.19     0.27     6.59     0  02:35        0.27
  WS02006228           JUNCTION     0.65     0.90     7.55     0  02:30        0.90
  WS02006229           JUNCTION     0.62     0.89     7.58     0  02:30        0.89
  WS02006280           JUNCTION     0.06     0.16     8.43     0  02:17        0.16
  WS02006284           JUNCTION     0.35     0.50     8.90     0  02:16        0.50
  WS02006287           JUNCTION     0.08     0.24     9.19     0  02:16        0.24
  WSF200               JUNCTION     0.18     0.27     5.50     0  02:38        0.27
  HS02004901           JUNCTION     0.11     0.25    10.07     0  02:14        0.25
  HS02004881           JUNCTION     0.01     0.03     9.06     0  02:16        0.03
  HS02004876           JUNCTION     0.04     0.11     9.14     0  02:12        0.11
  HS02004870           JUNCTION     0.01     0.05     9.33     0  02:17        0.05
  HS02004862           JUNCTION     0.01     0.05     9.44     0  02:18        0.05
  HS02004856           JUNCTION     0.07     0.11     9.54     0  02:17        0.11
  HS02004852           JUNCTION     0.01     0.03     9.54     0  02:18        0.03
  HS02004848           JUNCTION     0.01     0.03     9.63     0  02:17        0.03
  HS02004842           JUNCTION     0.33     0.36     9.63     0  02:17        0.36
  HS02004837           JUNCTION     0.03     0.05     9.63     0  02:16        0.05
  HS02004830           JUNCTION     0.04     0.07     9.54     0  02:17        0.07
  HS02004824           JUNCTION     0.02     0.04     9.45     0  02:20        0.04
  HS02004817           JUNCTION     0.43     0.54     9.39     0  02:17        0.54
  HS02004807           JUNCTION     0.11     0.22     9.39     0  02:17        0.22
  HS02004802           JUNCTION     0.15     0.26     9.38     0  02:17        0.26
  HS02004799           JUNCTION     0.10     0.28     9.50     0  02:14        0.28
  HS02004792           JUNCTION     0.02     0.11     9.64     0  02:14        0.11
  HS02004788           JUNCTION     0.02     0.08     9.98     0  02:15        0.08
  HS02004785           JUNCTION     0.04     0.15    10.05     0  02:14        0.15
  HS02004777           JUNCTION     0.13     0.27    10.07     0  02:14        0.27
  HS02004770           JUNCTION     0.10     0.24    10.07     0  02:14        0.24
  HS02004480           JUNCTION     0.07     0.22     9.46     0  02:15        0.22
  HS02004479           JUNCTION     0.10     0.26     9.46     0  02:15        0.26
  HS02004478           JUNCTION     0.05     0.14     9.37     0  02:16        0.14
  YS02001745           JUNCTION     0.37     0.63     8.14     0  05:48        0.62
  YS02001748           JUNCTION     0.76     1.06     8.14     0  05:29        1.05
  YS02001751           JUNCTION     0.94     1.99     8.87     0  03:45        1.24
  YS02001754           JUNCTION     1.19     1.98     8.59     0  03:45        1.66
  YS02001762           JUNCTION     1.39     1.80     8.20     0  03:45        1.71
  YS02001765           JUNCTION     1.34     1.73     8.18     0  03:45        1.66
  YS02001767           JUNCTION     1.31     1.72     8.21     0  03:32        1.63
  YS02001770           JUNCTION     1.30     1.83     8.32     0  03:31        1.72
  YS02001774           JUNCTION     1.37     1.93     8.35     0  03:32        1.81
  YS02001779           JUNCTION     1.12     1.68     8.37     0  03:32        1.56
  YS02001882           JUNCTION     0.31     0.53     7.25     0  02:54        0.53
  YS02001884           JUNCTION     0.41     0.63     7.25     0  02:54        0.63
  YS02001759           JUNCTION     1.42     1.80     8.17     0  03:45        1.74
  YS02001887           JUNCTION     0.48     0.71     7.25     0  02:54        0.71
  YS02001890           JUNCTION     0.51     0.74     7.25     0  02:53        0.74
  YS02001898           JUNCTION     0.28     0.50     7.23     0  02:54        0.50
  YS02001901           JUNCTION     0.40     0.62     7.23     0  02:53        0.62
  YS02001904           JUNCTION     0.38     0.60     7.23     0  02:54        0.60
  YS02001907           JUNCTION     0.71     0.94     7.23     0  02:53        0.94
  YS02001910           JUNCTION     0.50     0.72     7.23     0  02:55        0.72
  YS02001915           JUNCTION     0.30     0.51     7.23     0  02:54        0.51
  YS02001918           JUNCTION     0.09     0.16     7.23     0  02:55        0.16
  YS02001619           JUNCTION     0.90     1.50     8.43     0  05:33        1.49
  YS02001629           JUNCTION     1.25     1.83     8.38     0  05:33        1.82
  YS02001641           JUNCTION     1.36     1.84     8.27     0  05:33        1.82
  YS02001644           JUNCTION     1.36     1.81     8.24     0  05:33        1.79
  YS02001652           JUNCTION     1.21     1.82     8.41     0  03:36        1.52
  YS02001655           JUNCTION     0.97     1.85     8.70     0  03:36        1.27
  YS02001920           JUNCTION     0.19     0.24     7.25     0  02:58        0.24
  YS02001923           JUNCTION     0.07     0.10     7.36     0  03:01        0.10
  YS02001926           JUNCTION     0.15     0.20     7.64     0  03:01        0.20
  YS02001929           JUNCTION     0.07     0.10     7.79     0  03:01        0.10
  YS02001658           JUNCTION     0.70     1.12     8.26     0  05:26        0.99
  YS02001661           JUNCTION     0.48     0.71     8.12     0  05:25        0.70
  YS02001664           JUNCTION     0.11     0.22     8.14     0  05:53        0.21
  YS02001622           JUNCTION     0.92     1.52     8.42     0  05:33        1.51
  YS02001633           JUNCTION     1.34     1.89     8.35     0  05:33        1.89
  YS02001649           JUNCTION     1.40     1.75     8.14     0  05:47        1.73
  YS02001757           JUNCTION     1.52     1.93     8.19     0  03:45        1.84
  YS02001895           JUNCTION     0.28     0.49     7.24     0  02:54        0.49
  YS02001625           JUNCTION     1.21     1.78     8.38     0  05:33        1.78
  YS02163301           JUNCTION     1.28     1.85     8.36     0  05:33        1.84
  YS02163601           JUNCTION     1.40     1.92     8.32     0  05:33        1.91
  YS02164001           JUNCTION     1.34     1.84     8.30     0  05:33        1.83
  YS02001647           JUNCTION     1.19     1.58     8.19     0  05:33        1.56
  YSB1154              JUNCTION     0.24     0.41     9.47     0  02:15        0.41
  YSB6556              JUNCTION     0.13     0.30     9.47     0  02:15        0.30
  YSB1174              JUNCTION     0.19     0.36     9.47     0  02:15        0.36
  YSB1171              JUNCTION     0.39     0.56     9.47     0  02:15        0.56
  YS02006553           JUNCTION     0.71     0.94     7.23     0  02:54        0.94
  YS02006561           JUNCTION     0.15     0.26     6.92     0  02:48        0.26
  YS02006556           JUNCTION     0.69     0.91     7.22     0  02:54        0.91
  YS02006558           JUNCTION     0.73     0.95     7.22     0  02:54        0.95
  YS02001783           JUNCTION     0.47     0.71     6.85     0  02:34        0.70
  YS02001784           JUNCTION     0.53     0.77     6.84     0  02:33        0.73
  YS02001786           JUNCTION     0.55     0.77     6.80     0  02:34        0.73
  YS02001788           JUNCTION     0.58     0.80     6.78     0  02:34        0.79
  YS02001790           JUNCTION     0.87     1.96     7.60     0  02:31        1.07
  YS02001791           JUNCTION     1.01     2.09     7.56     0  02:31        1.51
  YS02001793           JUNCTION     1.57     2.55     7.38     0  02:28        1.79
  WS02004139           JUNCTION     0.70     0.73     5.64     0  02:43        0.73
  WSC                  OUTFALL      0.31     0.38     1.05     0  02:42        0.38
  3                    OUTFALL      0.00     0.19     6.19     0  00:20        0.18
  4                    OUTFALL      0.00     0.00     7.00     0  00:00        0.00
  5                    OUTFALL      0.00     0.00     5.00     0  00:00        0.00
  JK-storage           STORAGE      5.28     5.80     6.60     0  02:32        5.80
  CC-storage           STORAGE      0.77     1.07     8.07     0  05:52        1.07
  XR-storage           STORAGE      0.34     5.05     3.05     0  00:11        5.05
  
  
  *******************
  Node Inflow Summary
  *******************
  
  -------------------------------------------------------------------------------------------------
                                  Maximum  Maximum                  Lateral       Total        Flow
                                  Lateral    Total  Time of Max      Inflow      Inflow     Balance
                                   Inflow   Inflow   Occurrence      Volume      Volume       Error
  Node                 Type           LPS      LPS  days hr:min    10^6 ltr    10^6 ltr     Percent
  -------------------------------------------------------------------------------------------------
  WS02001211           JUNCTION      7.35   388.02     0  02:54       0.207        10.1       0.417
  WS02001212           JUNCTION      0.00   388.43     0  02:54           0        10.1       0.233
  WS02001213           JUNCTION      0.00   388.84     0  02:53           0        10.1       0.251
  WS02003069           JUNCTION      0.32   859.47     0  02:40     0.00902        15.7       0.200
  WS02003072           JUNCTION      0.00   859.44     0  02:41           0        15.6       0.242
  WS02003073           JUNCTION      1.82   861.27     0  02:41      0.0514        15.7       0.274
  WS02003060           JUNCTION     16.53   859.13     0  02:40       0.466        15.7       0.188
  WS02003066           JUNCTION      0.00   458.07     0  02:38           0        5.22       0.072
  WS02003059           JUNCTION      0.00   389.50     0  02:53           0        10.1       0.417
  WS02003067           JUNCTION      0.00   458.05     0  02:38           0        5.23       0.156
  WS02004401           JUNCTION      0.00   462.14     0  02:33           0        5.43       0.349
  WS02004402           JUNCTION      0.00   461.47     0  02:33           0        5.42       0.333
  WS02004403           JUNCTION      0.00   461.13     0  02:34           0         5.4       0.307
  WS02004404           JUNCTION      0.16   461.15     0  02:34     0.00457        5.39       0.236
  WS02004406           JUNCTION      0.00   461.16     0  02:34           0        5.36       0.576
  WS02004409           JUNCTION      0.00   461.07     0  02:35           0        5.32       0.248
  WS02004410           JUNCTION      0.00   459.82     0  02:36           0        5.31       0.286
  WS02004411           JUNCTION      0.00   458.94     0  02:36           0        5.29       0.299
  WS02004412           JUNCTION      0.00   458.44     0  02:37           0        5.27       0.331
  WS02004413           JUNCTION      0.00   458.15     0  02:38           0        5.26       0.503
  WS02004405           JUNCTION      0.04   461.14     0  02:34     0.00107        5.37       0.353
  WS02006109           JUNCTION      1.23   459.53     0  02:30      0.0347        5.51       0.335
  WS02006110           JUNCTION      0.00   459.54     0  02:30           0        5.49       0.341
  WS02006111           JUNCTION      0.00   473.41     0  02:30           0        5.47       0.069
  WS02006112           JUNCTION     11.42   468.10     0  02:32      0.0322        5.49       0.486
  WS02006113           JUNCTION      0.00   459.63     0  02:30           0        5.47       0.142
  WS02006115           JUNCTION      0.00   464.71     0  02:31           0        5.47       0.308
  WS02006116           JUNCTION      0.00   463.15     0  02:32           0        5.45       0.297
  WS02006230           JUNCTION     10.28   256.23     0  02:37        0.29        4.46       0.272
  WS02006231           JUNCTION      0.00   244.65     0  02:37           0        4.18       0.172
  WS02006232           JUNCTION      0.00   243.77     0  02:37           0        4.18       0.340
  WS02006234           JUNCTION      0.00   242.82     0  02:37           0        4.19       0.167
  WS02006235           JUNCTION      0.00   242.33     0  02:37           0        4.22       0.188
  WS02006238           JUNCTION      0.00   241.80     0  02:36           0        4.16       0.156
  WS02006240           JUNCTION      0.00   240.66     0  02:33           0        4.15       0.257
  WS02006242           JUNCTION      0.00   242.80     0  02:25           0        4.16       0.310
  WS02006243           JUNCTION      0.00   244.81     0  02:24           0        4.16       0.181
  WS02006245           JUNCTION      0.00   246.03     0  02:24           0        4.16       0.201
  WS02006247           JUNCTION      0.00   246.96     0  02:23           0        4.17       0.158
  WS02006248           JUNCTION      0.00   247.56     0  02:22           0        4.17       0.108
  WS02006249           JUNCTION      0.00   248.57     0  02:21           0        4.18       0.227
  WS02006239           JUNCTION      0.00   241.12     0  02:35           0        4.15       0.164
  WS02006251           JUNCTION      0.08   250.10     0  02:20     0.00217        4.19       0.209
  WS02006252           JUNCTION      0.00   200.00     0  02:17           0        4.01       0.011
  WS02006253           JUNCTION      1.72    52.05     0  02:16     0.00416       0.183       1.978
  WS02006256           JUNCTION      0.00   599.15     0  00:20           0        0.19       1.051
  WS02004138           JUNCTION      0.00   380.00     0  01:10           0        9.97       0.053
  WS02004407           JUNCTION      0.00   461.10     0  02:35           0        5.32       0.114
  WS02006228           JUNCTION      0.00   458.30     0  02:30           0        5.49       0.234
  WS02006229           JUNCTION      0.00   458.31     0  02:29           0        5.51       0.223
  WS02006280           JUNCTION      0.00   261.74     0  02:17           0        1.06       0.006
  WS02006284           JUNCTION      0.10   261.73     0  02:16      0.0027        1.06       0.103
  WS02006287           JUNCTION      0.00   261.62     0  02:16           0        1.06       0.068
  WSF200               JUNCTION      0.00   458.07     0  02:38           0        5.22       0.066
  HS02004901           JUNCTION     14.12    14.12     0  02:09      0.0387      0.0388       4.739
  HS02004881           JUNCTION      5.74    50.70     0  02:16      0.0169       0.179       0.210
  HS02004876           JUNCTION      9.27    45.24     0  02:16      0.0324       0.163       0.328
  HS02004870           JUNCTION     10.18    36.13     0  02:16       0.032        0.13       0.082
  HS02004862           JUNCTION      8.45    26.57     0  02:17      0.0376      0.0985       0.173
  HS02004856           JUNCTION      7.56    18.17     0  02:16      0.0241      0.0623       2.369
  HS02004852           JUNCTION      0.00    11.06     0  02:17           0      0.0383       0.136
  HS02004848           JUNCTION     17.12    17.12     0  02:20      0.0765      0.0765       0.057
  HS02004842           JUNCTION      0.00     6.65     0  02:29           0      0.0512      34.063
  HS02004837           JUNCTION     22.77    28.31     0  02:16       0.235       0.273       0.297
  HS02004830           JUNCTION      0.15    28.44     0  02:17     0.00423       0.263       0.470
  HS02004824           JUNCTION     19.41    47.61     0  02:20         0.1       0.362       0.149
  HS02004817           JUNCTION      0.60    48.20     0  02:20      0.0169       0.378       4.606
  HS02004807           JUNCTION     19.13    65.71     0  02:18      0.0588       0.421       1.015
  HS02004802           JUNCTION      0.00    66.14     0  02:19           0       0.416       0.982
  HS02004799           JUNCTION     14.78   167.13     0  02:14      0.0476       0.565       0.407
  HS02004792           JUNCTION     65.67   152.56     0  02:14       0.206       0.518       0.079
  HS02004788           JUNCTION     21.74    88.74     0  02:14       0.113       0.313       0.125
  HS02004785           JUNCTION      0.15    67.27     0  02:14     0.00423       0.201       0.241
  HS02004777           JUNCTION      0.03    67.55     0  02:12    0.000846       0.202       2.635
  HS02004770           JUNCTION     55.59    68.62     0  02:11       0.165       0.203       1.552
  HS02004480           JUNCTION      0.00   197.20     0  02:15           0       0.661       0.114
  HS02004479           JUNCTION      0.00    30.69     0  02:16           0       0.109       0.674
  HS02004478           JUNCTION      0.00   261.60     0  02:16           0        1.06       0.057
  YS02001745           JUNCTION    103.27   163.75     0  03:44        1.07         1.3       0.483
  YS02001748           JUNCTION      0.04   367.04     0  03:28     0.00127        1.35       1.354
  YS02001751           JUNCTION      0.01   371.78     0  03:27     0.00031         1.1       1.987
  YS02001754           JUNCTION      0.26   153.90     0  03:27     0.00733        1.03       2.320
  YS02001762           JUNCTION      0.00   145.18     0  02:50           0        1.16       1.827
  YS02001765           JUNCTION      0.00   143.69     0  02:50           0        1.16       2.106
  YS02001767           JUNCTION      0.54   145.13     0  02:32      0.0151        1.18       3.109
  YS02001770           JUNCTION    131.47   153.95     0  02:49        1.23        1.26       2.563
  YS02001774           JUNCTION      0.00    56.21     0  03:29           0       0.089      38.849
  YS02001779           JUNCTION      0.01    56.53     0  03:29    0.000141       0.039      64.475
  YS02001882           JUNCTION      0.00     4.89     0  02:07           0     0.00645      38.550
  YS02001884           JUNCTION      0.00    13.65     0  02:10           0      0.0256      25.056
  YS02001759           JUNCTION    128.10   273.92     0  02:50        1.15        2.27       1.014
  YS02001887           JUNCTION    167.24   167.67     0  02:42        1.36        1.37       0.545
  YS02001890           JUNCTION      0.00   167.30     0  02:42           0        1.34       0.609
  YS02001898           JUNCTION      0.00   166.16     0  02:42           0        1.33       0.182
  YS02001901           JUNCTION      0.00   165.62     0  02:44           0        1.33       0.437
  YS02001904           JUNCTION      0.00   165.06     0  02:48           0        1.33       0.406
  YS02001907           JUNCTION      0.00   301.52     0  02:57           0        2.86       0.791
  YS02001910           JUNCTION      0.00   139.94     0  03:01           0        1.55       0.683
  YS02001915           JUNCTION     92.05   139.24     0  03:00       0.908        1.55       0.315
  YS02001918           JUNCTION      0.00    47.28     0  03:03           0       0.645       0.201
  YS02001619           JUNCTION     89.65    89.65     0  02:59       0.897       0.897       1.400
  YS02001629           JUNCTION      0.00   179.86     0  03:50           0       0.829       3.627
  YS02001641           JUNCTION      0.00   196.18     0  03:03           0        1.77       1.196
  YS02001644           JUNCTION     98.19   294.08     0  03:00        1.02        2.76       0.947
  YS02001652           JUNCTION      0.00   166.11     0  02:47           0       0.955       2.221
  YS02001655           JUNCTION      0.15   345.14     0  03:35     0.00434        1.03       2.174
  YS02001920           JUNCTION      2.87    47.04     0  03:01      0.0809       0.647       0.346
  YS02001923           JUNCTION      0.04    44.17     0  03:01     0.00106       0.566       0.062
  YS02001926           JUNCTION      0.05    44.22     0  03:01     0.00147       0.568       0.431
  YS02001929           JUNCTION     44.19    44.19     0  03:01       0.567       0.567       0.060
  YS02001658           JUNCTION      0.00   361.35     0  03:36           0        1.23       1.554
  YS02001661           JUNCTION      0.00   242.87     0  03:43           0        1.27       0.919
  YS02001664           JUNCTION    118.97   118.97     0  02:45       0.998        1.07       0.044
  YS02001622           JUNCTION      0.00   133.50     0  03:54           0       0.897       3.756
  YS02001633           JUNCTION     99.86   199.41     0  03:04        1.05        1.83       1.795
  YS02001649           JUNCTION      0.00   432.80     0  03:06           0        3.63       1.024
  YS02001757           JUNCTION      0.00   759.01     0  02:56           0        6.81       1.372
  YS02001895           JUNCTION      0.00   166.56     0  02:41           0        1.33       0.298
  YS02001625           JUNCTION      0.00   180.17     0  03:50           0       0.876       4.675
  YS02163301           JUNCTION      0.00   102.96     0  03:08           0         0.8       3.099
  YS02163601           JUNCTION      0.11   198.64     0  03:04      0.0031        1.79       1.711
  YS02164001           JUNCTION      0.00   198.22     0  03:04           0        1.77       1.142
  YS02001647           JUNCTION      0.00   294.48     0  03:00           0        2.72       0.935
  YSB1154              JUNCTION     16.48    16.48     0  02:14      0.0577       0.059       2.509
  YSB6556              JUNCTION      0.00    16.51     0  02:15           0      0.0599       2.126
  YSB1174              JUNCTION     15.99    15.99     0  02:08       0.042      0.0429       3.083
  YSB1171              JUNCTION      0.00    30.60     0  02:14           0       0.108       6.195
  YS02006553           JUNCTION      0.00   301.77     0  03:02           0        2.85       0.512
  YS02006561           JUNCTION      0.00   468.26     0  02:49           0        4.04       0.012
  YS02006556           JUNCTION      0.00   302.19     0  03:02           0        2.86       0.371
  YS02006558           JUNCTION    142.05   442.94     0  02:48        1.24        4.07       0.118
  YS02001783           JUNCTION      0.00   444.73     0  02:54           0        4.04       0.179
  YS02001784           JUNCTION      1.06   470.12     0  02:34      0.0299        4.06       0.262
  YS02001786           JUNCTION      0.06   465.43     0  02:35     0.00159        4.05       0.335
  YS02001788           JUNCTION      0.07   482.77     0  02:35       0.002        4.04       0.342
  YS02001790           JUNCTION      0.15   464.32     0  02:34     0.00437        4.03       0.425
  YS02001791           JUNCTION      0.00   464.48     0  02:34           0        4.01       0.364
  YS02001793           JUNCTION      0.00   464.85     0  02:34           0           4       0.413
  WS02004139           JUNCTION      0.32   380.36     0  01:10     0.00905        9.98       0.431
  WSC                  OUTFALL       0.00   861.29     0  02:42           0        15.6       0.000
  3                    OUTFALL       0.00   444.59     0  00:20           0      0.0996       0.000
  4                    OUTFALL       0.00     0.00     0  00:00           0           0       0.000 ltr
  5                    OUTFALL       0.00     0.00     0  00:00           0           0       0.000 ltr
  JK-storage           STORAGE       0.00   623.70     0  02:28           0        4.13       0.390
  CC-storage           STORAGE       0.00   759.12     0  02:56           0        6.71       0.809
  XR-storage           STORAGE     366.60   366.60     0  02:56        7.43        8.03     -19.466
  
  
  **********************
  Node Surcharge Summary
  **********************
  
  Surcharging occurs when water rises above the top of the highest conduit.
  ---------------------------------------------------------------------
                                               Max. Height   Min. Depth
                                   Hours       Above Crown    Below Rim
  Node                 Type      Surcharged         Meters       Meters
  ---------------------------------------------------------------------
  WS02006109           JUNCTION        0.43          0.063        1.757
  WS02006228           JUNCTION        0.41          0.072        2.128
  YS02001751           JUNCTION        3.80          0.989        0.211
  YS02001754           JUNCTION        4.50          0.931        0.219
  YS02001762           JUNCTION        5.35          0.798        0.352
  YS02001765           JUNCTION        5.31          0.728        0.372
  YS02001767           JUNCTION        5.28          0.723        0.307
  YS02001770           JUNCTION        5.23          0.797        0.123
  YS02001774           JUNCTION        5.34          0.929        0.121
  YS02001779           JUNCTION        4.32          0.680        0.000
  YS02001759           JUNCTION        5.38          0.805        0.405
  YS02001619           JUNCTION        3.51          0.501        0.109
  YS02001629           JUNCTION        3.55          0.449        0.021
  YS02001641           JUNCTION        5.33          0.837        0.263
  YS02001644           JUNCTION        5.33          0.806        0.114
  YS02001652           JUNCTION        4.79          0.787        0.343
  YS02001655           JUNCTION        3.92          0.849        0.351
  YS02001658           JUNCTION        0.01          0.116        1.184
  YS02001622           JUNCTION        3.71          0.515        0.105
  YS02001633           JUNCTION        5.30          0.874        0.186
  YS02001649           JUNCTION        5.36          0.752        0.298
  YS02001757           JUNCTION        5.46          0.933        0.277
  YS02001625           JUNCTION        5.05          0.780        0.000
  YS02163301           JUNCTION        5.27          0.846        0.184
  YS02163601           JUNCTION        5.36          0.918        0.162
  YS02164001           JUNCTION        5.32          0.838        0.262
  YS02001647           JUNCTION        4.98          0.580        0.320
  YS02001790           JUNCTION        5.30          1.157        0.000
  YS02001791           JUNCTION        5.32          1.293        0.627
  YS02001793           JUNCTION        5.35          1.550        1.050
  
  
  *********************
  Node Flooding Summary
  *********************
  
  Flooding refers to all water that overflows a node, whether it ponds or not.
  --------------------------------------------------------------------------
                                                             Total   Maximum
                                 Maximum   Time of Max       Flood    Ponded
                        Hours       Rate    Occurrence      Volume     Depth
  Node                 Flooded       LPS   days hr:min    10^6 ltr    Meters
  --------------------------------------------------------------------------
  YS02001779              0.01      5.62      0  03:33       0.000     0.000
  YS02001625              0.01      4.37      0  05:33       0.000     0.000
  YS02001790              0.01    204.79      0  02:31       0.000     0.000
  JK-storage              5.29    464.82      0  02:34       3.638     0.000
  
  
  **********************
  Storage Volume Summary
  **********************
  
  --------------------------------------------------------------------------------------------------
                         Average     Avg  Evap Exfil       Maximum     Max    Time of Max    Maximum
                          Volume    Pcnt  Pcnt  Pcnt        Volume    Pcnt     Occurrence    Outflow
  Storage Unit           1000 m3    Full  Loss  Loss       1000 m3    Full    days hr:min        LPS
  --------------------------------------------------------------------------------------------------
  JK-storage               0.265      91     0     0         0.291     100       0  02:32     599.15
  CC-storage               2.139      14     0     0         2.991      19       0  05:52     200.00
  XR-storage               0.041       4     0     0         0.606      65       0  00:11     380.00
  
  
  ***********************
  Outfall Loading Summary
  ***********************
  
  -----------------------------------------------------------
                         Flow       Avg       Max       Total
                         Freq      Flow      Flow      Volume
  Outfall Node           Pcnt       LPS       LPS    10^6 ltr
  -----------------------------------------------------------
  WSC                  100.00    621.20    861.29      15.611
  3                      1.97    253.37    444.59       0.100
  4                      0.00      0.00      0.00       0.000
  5                      0.00      0.00      0.00       0.000
  -----------------------------------------------------------
  System                25.49    874.58    861.29      15.710
  
  
  ********************
  Link Flow Summary
  ********************
  
  -----------------------------------------------------------------------------
                                 Maximum  Time of Max   Maximum    Max/    Max/
                                  |Flow|   Occurrence   |Veloc|    Full    Full
  Link                 Type          LPS  days hr:min     m/sec    Flow   Depth
  -----------------------------------------------------------------------------
  WS02003066WSF200     CONDUIT    458.07     0  02:38      2.71    0.08    0.21
  WS02006287WS02006284 CONDUIT    261.63     0  02:16      1.76    0.12    0.24
  WS02006284WS02006280 CONDUIT    261.74     0  02:17      2.00    0.11    0.22
  WS02006280WS02006229 CONDUIT    261.74     0  02:17      3.22    0.06    0.16
  WS02006229WS02006228 CONDUIT    458.30     0  02:30      0.91    1.52    1.00
  WS02006256WS02006235 CONDUIT    158.12     0  00:13      2.30    1.67    1.00
  WS02006253WS02006251 CONDUIT     51.62     0  02:14      0.53    0.15    0.65
  WS02006252WS02006251 CONDUIT    200.67     0  02:17      1.97    0.74    0.76
  WS02006251WS02006249 CONDUIT    248.57     0  02:21      1.00    0.72    0.64
  WS02006249WS02006248 CONDUIT    247.56     0  02:22      1.09    1.36    0.60
  WS02006248WS02006247 CONDUIT    246.96     0  02:23      1.06    0.54    0.62
  WS02006247WS02006245 CONDUIT    246.03     0  02:24      1.03    1.95    0.64
  WS02006245WS02006243 CONDUIT    244.81     0  02:24      1.13    0.72    0.63
  WS02006243WS02006242 CONDUIT    242.80     0  02:25      1.00    0.52    0.71
  WS02006242WS02006240 CONDUIT    240.66     0  02:33      0.89    0.96    0.76
  WS02006240WS02006239 CONDUIT    241.12     0  02:35      0.99    0.76    0.73
  WS02006239WS02006238 CONDUIT    241.80     0  02:36      0.83    0.77    0.81
  WS02006238WS02006235 CONDUIT    242.31     0  02:37      0.91    0.54    0.83
  WS02006235WS02006234 CONDUIT    242.82     0  02:37      0.93    2.56    0.77
  WS02006234WS02006232 CONDUIT    243.77     0  02:37      1.02    0.49    0.85
  WS02006232WS02006231 CONDUIT    244.65     0  02:37      0.78    0.51    0.83
  WS02006231WS02006230 CONDUIT    245.95     0  02:37      1.13    3.73    0.73
  WS02006230WS02006229 CONDUIT    257.86     0  02:38      0.81    5.74    1.00
  WS02006228WS02006109 CONDUIT    458.30     0  02:30      0.91    2.00    1.00
  WS02006116WS02004401 CONDUIT    462.14     0  02:33      0.73    0.64    0.78
  WS02006115WS02006116 CONDUIT    463.15     0  02:32      0.82    0.59    0.70
  WS02006113WS02006111 CONDUIT    473.41     0  02:30      2.33    0.57    0.42
  WS02006112WS02006115 CONDUIT    464.71     0  02:31      0.68    0.27    0.83
  WS02006111WS02006112 CONDUIT    461.67     0  02:32      1.31    0.22    0.66
  WS02006110WS02006113 CONDUIT    459.63     0  02:30      1.12    0.42    0.76
  WS02006109WS02006110 CONDUIT    459.54     0  02:30      0.92    0.88    0.97
  WS02004411WS02004412 CONDUIT    458.44     0  02:37      0.86    0.65    0.65
  WS02004401WS02004402 CONDUIT    461.47     0  02:33      0.77    0.55    0.81
  WS02004413WS02003067 CONDUIT    458.05     0  02:38      1.02    0.20    0.56
  WS02004412WS02004413 CONDUIT    458.15     0  02:38      0.74    0.31    0.73
  WS02004410WS02004411 CONDUIT    458.94     0  02:36      0.88    0.63    0.63
  WS02004409WS02004410 CONDUIT    459.82     0  02:36      0.91    0.59    0.62
  WS02004407WS02004409 CONDUIT    461.07     0  02:35      1.40    0.16    0.44
  WS02004406WS02004407 CONDUIT    461.10     0  02:35      0.95    0.21    0.59
  WS02004405WS02004406 CONDUIT    461.16     0  02:34      0.62    0.91    0.91
  WS02004404WS02004405 CONDUIT    461.10     0  02:34      0.85    4.52    0.91
  WS02004403WS02004404 CONDUIT    460.99     0  02:34      0.74    0.33    0.88
  WS02004402WS02004403 CONDUIT    461.13     0  02:34      0.75    0.66    0.83
  WS02004139WS02001211 CONDUIT    380.67     0  02:54      0.69    0.48    0.59
  WS02004138WS02004139 CONDUIT    380.04     0  01:10      2.95    0.08    0.44
  WS02003067WS02003066 CONDUIT    458.07     0  02:38      1.10    0.15    0.39
  WS02001213WS02003059 CONDUIT    389.50     0  02:53      0.68    0.64    0.76
  WS02001212WS02001213 CONDUIT    388.84     0  02:53      1.32    0.60    0.46
  WS02001211WS02001212 CONDUIT    388.43     0  02:54      0.78    0.30    0.64
  WS02003072WS02003073 CONDUIT    859.45     0  02:41      1.67    1.86    0.46
  WS02003069WS02003072 CONDUIT    859.44     0  02:41      1.58    0.41    0.49
  WS02003060WS02003069 CONDUIT    859.15     0  02:40      1.83    0.34    0.43
  WS02003059WS02003060 CONDUIT    390.40     0  02:53      0.95    0.25    0.64
  HS02004901HS02004770 CONDUIT     13.25     0  02:12      0.05    0.05    0.35
  HS02004876HS02004881 CONDUIT     45.38     0  02:16      0.68    0.48    0.10
  HS02004870HS02004876 CONDUIT     36.11     0  02:17      0.47    0.02    0.11
  HS02004842HS02004848 CONDUIT      6.65     0  02:29      0.03    0.00    0.28
  HS02004837HS02004842 CONDUIT      6.88     0  02:30      0.42    0.00    0.30
  HS02004830HS02004837 CONDUIT     28.29     0  02:17      0.48    0.03    0.08
  HS02004824HS02004830 CONDUIT     28.44     0  02:17      0.51    0.04    0.08
  HS02004817HS02004824 CONDUIT     47.60     0  02:20      0.17    0.02    0.42
  HS02004770HS02004777 CONDUIT     67.52     0  02:12      0.27    0.12    0.36
  HS02004799HS02004480 CONDUIT    166.90     0  02:14      0.67    0.21    0.35
  HS02004792HS02004799 CONDUIT    152.49     0  02:14      0.77    0.09    0.28
  HS02004788HS02004792 CONDUIT     88.68     0  02:15      0.91    0.06    0.14
  HS02004785HS02004788 CONDUIT     67.19     0  02:14      0.58    0.51    0.17
  HS02004777HS02004785 CONDUIT     67.12     0  02:14      0.32    0.08    0.30
  HS02004480HS02004478 CONDUIT    197.16     0  02:15      1.06    0.83    0.26
  HS02004479HS02004480 CONDUIT     30.94     0  02:16      0.15    0.03    0.34
  HS02004862HS02004870 CONDUIT     26.53     0  02:18      0.52    0.03    0.07
  HS02004848HS02004852 CONDUIT     11.06     0  02:17      0.35    0.01    0.05
  HS02004856HS02004862 CONDUIT     18.14     0  02:17      0.38    0.02    0.07
  HS02004852HS02004856 CONDUIT     11.02     0  02:18      0.16    0.01    0.10
  HS02004802HS02004478 CONDUIT     66.64     0  02:20      0.34    0.06    0.29
  HS02004478WS02006287 CONDUIT    261.62     0  02:16      1.45    0.07    0.20
  HS02004817HS02004807 CONDUIT     48.93     0  02:22      0.13    0.03    0.55
  HS02004807HS02004802 CONDUIT     66.14     0  02:19      0.29    0.13    0.33
  YS02001759YS02001757 CONDUIT    273.93     0  02:50      0.35    0.19    1.00
  YS02001762YS02001759 CONDUIT    145.87     0  02:50      0.19    0.17    1.00
  YS02001765YS02001762 CONDUIT    145.18     0  02:50      0.23    0.14    1.00
  YS02001770YS02001767 CONDUIT    144.60     0  02:32      0.30    0.57    1.00
  YS02001774YS02001770 CONDUIT     56.21     0  03:29      0.14    0.04    1.00
  YS02001779YS02001774 CONDUIT     56.52     0  03:29      0.07    0.03    1.00
  YS02001649YS02001757 CONDUIT    433.22     0  03:06      0.55    0.26    1.00
  YS02001767YS02001765 CONDUIT    143.69     0  02:50      0.26    0.18    1.00
  YS02006561YS02001783 CONDUIT    444.73     0  02:54      1.90    0.23    0.60
  YS02001783YS02001784 CONDUIT    469.06     0  02:34      1.33    0.65    0.90
  YS02001784YS02001785 CONDUIT    465.38     0  02:35      1.42    1.08    0.96
  YS02001788YS02001790 CONDUIT    464.16     0  02:34      1.96    0.34    1.00
  YS02001790YS02001791 CONDUIT    464.48     0  02:34      2.32    0.51    1.00
  YS02001791YS02001793 CONDUIT    464.85     0  02:34      4.54    0.20    1.00
  YS02001910YS02001907 CONDUIT    140.61     0  03:04      0.49    0.08    0.83
  YS02001786YS02001788 CONDUIT    482.70     0  02:35      1.89    0.93    0.96
  YS02001915YS02001910 CONDUIT    139.94     0  03:01      0.45    0.07    0.62
  YS02001918YS02001915 CONDUIT     48.80     0  03:05      0.44    0.03    0.34
  YS02001923YS02001920 CONDUIT     44.17     0  03:01      0.51    0.02    0.17
  YS02001926YS02001923 CONDUIT     44.13     0  03:01      0.56    0.06    0.16
  YS02001929YS02001926 CONDUIT     44.17     0  03:01      0.60    0.02    0.15
  YS02001920YS02001918 CONDUIT     47.28     0  03:03      0.52    0.05    0.20
  YS02001629YS02163301 CONDUIT    102.96     0  03:08      0.13    0.13    1.00
  YS02001619YS02001622 CONDUIT    133.50     0  03:54      0.70    0.20    1.00
  YS02001622YS02001625 CONDUIT    180.17     0  03:50      0.29    0.10    1.00
  YS02001625YS02001629 CONDUIT    179.86     0  03:50      0.28    0.09    1.00
  YS02163301YS02001633 CONDUIT    102.63     0  03:04      0.13    0.10    1.00
  YS02163601YS02164001 CONDUIT    198.22     0  03:04      0.25    0.18    1.00
  YS02164001YS02001641 CONDUIT    196.18     0  03:03      0.25    0.27    1.00
  YS02001641YS02001644 CONDUIT    197.37     0  03:03      0.25    0.64    1.00
  YS02001647YS02001649 CONDUIT    311.85     0  02:52      0.40    0.16    1.00
  YS02006553YS02006556 CONDUIT    302.19     0  03:02      0.41    0.26    0.91
  YS02006556YS02006558 CONDUIT    302.88     0  03:02      0.40    0.24    0.93
  YSB6556YSB1171       CONDUIT     16.80     0  02:18      0.07    0.02    0.61
  YS02001907YS02006553 CONDUIT    301.77     0  03:02      0.34    0.35    1.00
  YS02006558YS02006561 CONDUIT    468.26     0  02:49      2.69    1.03    0.59
  YS02001633YS02163601 CONDUIT    198.53     0  03:04      0.25    0.21    1.00
  YS02001644YS02001647 CONDUIT    294.48     0  03:00      0.37    0.17    1.00
  YS02001745YS02001748 CONDUIT    209.05     0  03:33      1.50    0.08    0.75
  YS02001748YS02001751 CONDUIT    371.77     0  03:27      1.15    0.19    1.00
  YS02001751YS02001754 CONDUIT    153.64     0  03:27      1.00    0.07    1.00
  YS02001754YS02001757 CONDUIT    162.80     0  03:16      0.33    0.07    1.00
  YS02001882YS02001884 CONDUIT      4.89     0  02:07      0.06    0.01    0.55
  YS02001884YS02001887 CONDUIT     13.65     0  02:10      0.06    0.02    0.65
  YS02001890YS02001895 CONDUIT    166.56     0  02:41      0.33    0.08    0.62
  YS02001895YS02001898 CONDUIT    166.16     0  02:42      0.49    0.29    0.48
  YS02001898YS02001901 CONDUIT    165.62     0  02:44      0.37    0.11    0.56
  YS02001901YS02001904 CONDUIT    165.06     0  02:48      0.33    0.26    0.61
  YS02001904YS02001907 CONDUIT    165.28     0  02:49      0.26    0.06    0.77
  YS02001887YS02001890 CONDUIT    167.30     0  02:42      0.29    0.29    0.70
  YS02001652YS02001649 CONDUIT    171.53     0  03:14      0.33    0.09    1.00
  YS02001655YS02001652 CONDUIT    166.11     0  02:47      1.07    0.08    1.00
  YS02001658YS02001655 CONDUIT    334.01     0  03:35      1.33    0.14    1.00
  YS02001661YS02001658 CONDUIT    291.49     0  03:33      1.56    0.11    0.80
  YS02001664YS02001661 CONDUIT    123.22     0  05:43      1.29    0.04    0.44
  YSB1154YSB6556       CONDUIT     16.51     0  02:15      0.19    0.03    0.50
  YSB1174YSB1171       CONDUIT     14.89     0  02:09      0.06    0.02    0.62
  YSB1171HS02004479    CONDUIT     30.69     0  02:16      0.54    0.02    0.48
  HS02004881HS02006253 CONDUIT     50.71     0  02:16      1.84    0.01    0.11
  YS02001793JiankangQianchi CONDUIT    623.70     0  02:28      2.29    0.05    1.00
  YS02001757CaochengTiaoxuchi CONDUIT    759.12     0  02:56      1.59    0.33    1.00
  WSF200WS02003060     CONDUIT    458.17     0  02:39      1.49    0.10    0.32
  1                    CONDUIT    861.29     0  02:42      3.20    0.30    0.38
  2                    CONDUIT      0.00     0  00:00      0.00    0.00    0.00
  3                    CONDUIT    444.59     0  00:20      9.54    0.71    0.63
  4                    CONDUIT      0.00     0  00:00      0.00    0.00    0.00
  CC-Pump-1            PUMP         0.00     0  00:00              0.00
  CC-Pump-2            PUMP       200.00     0  02:17              1.00
  JK-Pump-1            PUMP       299.57     0  00:20              1.00
  JK-Pump-2            PUMP       299.57     0  00:20              1.00
  XR-Pump-1            PUMP        95.00     0  00:00              1.00
  XR-Pump-2            PUMP        95.00     0  00:00              1.00
  XR-Pump-3            PUMP        95.00     0  00:20              1.00
  XR-Pump-4            PUMP        95.00     0  00:20              1.00
  
  
  ***************************
  Flow Classification Summary
  ***************************
  
  -------------------------------------------------------------------------------------
                      Adjusted    ---------- Fraction of Time in Flow Class ---------- 
                       /Actual         Up    Down  Sub   Sup   Up    Down  Norm  Inlet 
  Conduit               Length    Dry  Dry   Dry   Crit  Crit  Crit  Crit  Ltd   Ctrl  
  -------------------------------------------------------------------------------------
  WS02003066WSF200        1.00   0.04  0.02  0.00  0.00  0.94  0.00  0.00  0.75  0.00
  WS02006287WS02006284    1.00   0.04  0.02  0.00  0.69  0.26  0.00  0.00  0.76  0.00
  WS02006284WS02006280    1.00   0.04  0.00  0.00  0.00  0.00  0.00  0.96  0.00  0.00
  WS02006280WS02006229    1.00   0.04  0.00  0.00  0.00  0.00  0.00  0.96  0.00  0.00
  WS02006229WS02006228    1.00   0.00  0.00  0.00  1.00  0.00  0.00  0.00  0.00  0.00
  WS02006256WS02006235    1.00   0.00  0.00  0.00  0.99  0.00  0.00  0.00  0.00  0.00
  WS02006253WS02006251    1.00   0.03  0.01  0.00  0.96  0.00  0.00  0.00  0.00  0.00
  WS02006252WS02006251    1.00   0.08  0.00  0.00  0.00  0.00  0.92  0.00  0.00  0.00
  WS02006251WS02006249    1.00   0.00  0.00  0.00  1.00  0.00  0.00  0.00  0.25  0.00
  WS02006249WS02006248    1.00   0.00  0.00  0.00  0.92  0.00  0.07  0.00  0.00  0.00
  WS02006248WS02006247    1.00   0.00  0.00  0.00  0.97  0.00  0.00  0.02  0.15  0.00
  WS02006247WS02006245    1.00   0.00  0.00  0.00  0.98  0.00  0.00  0.02  0.00  0.00
  WS02006245WS02006243    1.00   0.01  0.00  0.00  0.94  0.00  0.00  0.05  0.01  0.00
  WS02006243WS02006242    1.00   0.01  0.00  0.00  0.99  0.00  0.00  0.00  0.24  0.00
  WS02006242WS02006240    1.00   0.01  0.00  0.00  0.99  0.00  0.00  0.00  0.00  0.00
  WS02006240WS02006239    1.00   0.00  0.00  0.00  0.95  0.00  0.00  0.04  0.01  0.00
  WS02006239WS02006238    1.00   0.00  0.00  0.00  1.00  0.00  0.00  0.00  0.11  0.00
  WS02006238WS02006235    1.00   0.00  0.00  0.00  1.00  0.00  0.00  0.00  0.00  0.00
  WS02006235WS02006234    1.00   0.00  0.00  0.00  0.95  0.00  0.04  0.00  0.00  0.00
  WS02006234WS02006232    1.00   0.00  0.00  0.00  1.00  0.00  0.00  0.00  0.09  0.00
  WS02006232WS02006231    1.00   0.00  0.00  0.00  0.99  0.00  0.00  0.00  0.00  0.00
  WS02006231WS02006230    1.00   0.01  0.00  0.00  0.17  0.00  0.82  0.00  0.00  0.00
  WS02006230WS02006229    1.00   0.00  0.00  0.00  0.99  0.00  0.00  0.01  0.00  0.00
  WS02006228WS02006109    1.00   0.00  0.00  0.00  1.00  0.00  0.00  0.00  0.00  0.00
  WS02006116WS02004401    1.00   0.03  0.00  0.00  0.97  0.00  0.00  0.00  0.00  0.00
  WS02006115WS02006116    1.00   0.03  0.00  0.00  0.97  0.00  0.00  0.01  0.00  0.00
  WS02006113WS02006111    1.00   0.02  0.00  0.00  0.00  0.98  0.00  0.00  0.14  0.00
  WS02006112WS02006115    1.00   0.02  0.00  0.00  0.97  0.00  0.00  0.00  0.00  0.00
  WS02006111WS02006112    1.00   0.02  0.00  0.00  0.97  0.00  0.00  0.00  0.96  0.00
  WS02006110WS02006113    1.00   0.00  0.02  0.00  0.98  0.00  0.00  0.00  0.00  0.00
  WS02006109WS02006110    1.00   0.00  0.00  0.00  1.00  0.00  0.00  0.00  0.00  0.00
  WS02004411WS02004412    1.00   0.04  0.00  0.00  0.96  0.00  0.00  0.00  0.00  0.00
  WS02004401WS02004402    1.00   0.03  0.00  0.00  0.97  0.00  0.00  0.00  0.00  0.00
  WS02004413WS02003067    1.00   0.04  0.01  0.00  0.00  0.00  0.94  0.00  0.00  0.00
  WS02004412WS02004413    1.00   0.04  0.00  0.00  0.96  0.00  0.00  0.00  0.03  0.00
  WS02004410WS02004411    1.00   0.04  0.00  0.00  0.96  0.00  0.00  0.00  0.03  0.00
  WS02004409WS02004410    1.00   0.04  0.00  0.00  0.96  0.00  0.00  0.00  0.04  0.00
  WS02004407WS02004409    1.00   0.04  0.00  0.00  0.96  0.00  0.00  0.00  0.87  0.00
  WS02004406WS02004407    1.00   0.00  0.04  0.00  0.96  0.00  0.00  0.00  0.00  0.00
  WS02004405WS02004406    1.00   0.00  0.00  0.00  1.00  0.00  0.00  0.00  0.03  0.00
  WS02004404WS02004405    1.00   0.00  0.00  0.00  1.00  0.00  0.00  0.00  0.00  0.00
  WS02004403WS02004404    1.00   0.00  0.03  0.00  0.97  0.00  0.00  0.00  0.01  0.00
  WS02004402WS02004403    1.00   0.03  0.00  0.00  0.97  0.00  0.00  0.00  0.00  0.00
  WS02004139WS02001211    1.00   0.00  0.00  0.00  1.00  0.00  0.00  0.00  0.00  0.00
  WS02004138WS02004139    1.00   0.00  0.00  0.00  1.00  0.00  0.00  0.00  1.00  0.00
  WS02003067WS02003066    1.00   0.06  0.00  0.00  0.94  0.00  0.00  0.00  0.00  0.00
  WS02001213WS02003059    1.00   0.00  0.00  0.00  1.00  0.00  0.00  0.00  0.00  0.00
  WS02001212WS02001213    1.00   0.00  0.00  0.00  0.93  0.00  0.07  0.00  0.00  0.00
  WS02001211WS02001212    1.00   0.00  0.00  0.00  1.00  0.00  0.00  0.00  0.00  0.00
  WS02003072WS02003073    1.00   0.00  0.00  0.00  0.00  0.00  0.00  1.00  0.00  0.00
  WS02003069WS02003072    1.00   0.00  0.00  0.00  1.00  0.00  0.00  0.00  0.12  0.00
  WS02003060WS02003069    1.00   0.00  0.00  0.00  1.00  0.00  0.00  0.00  0.01  0.00
  WS02003059WS02003060    1.00   0.00  0.00  0.00  1.00  0.00  0.00  0.00  0.01  0.00
  HS02004901HS02004770    1.00   0.04  0.00  0.00  0.96  0.00  0.00  0.00  0.02  0.00
  HS02004876HS02004881    1.00   0.00  0.00  0.00  1.00  0.00  0.00  0.00  0.00  0.00
  HS02004870HS02004876    1.00   0.00  0.00  0.00  0.99  0.01  0.00  0.00  0.95  0.00
  HS02004842HS02004848    1.00   0.00  0.04  0.00  0.96  0.00  0.00  0.00  0.67  0.00
  HS02004837HS02004842    1.00   0.00  0.00  0.00  1.00  0.00  0.00  0.00  0.11  0.00
  HS02004830HS02004837    1.00   0.00  0.00  0.00  1.00  0.00  0.00  0.00  0.99  0.00
  HS02004824HS02004830    1.00   0.00  0.00  0.00  1.00  0.00  0.00  0.00  0.00  0.00
  HS02004817HS02004824    1.00   0.00  0.00  0.00  1.00  0.00  0.00  0.00  1.00  0.00
  HS02004770HS02004777    1.00   0.00  0.04  0.00  0.96  0.00  0.00  0.00  0.07  0.00
  HS02004799HS02004480    1.00   0.00  0.02  0.00  0.95  0.00  0.04  0.00  0.00  0.00
  HS02004792HS02004799    1.00   0.00  0.00  0.00  1.00  0.00  0.00  0.00  0.98  0.00
  HS02004788HS02004792    1.00   0.00  0.00  0.00  1.00  0.00  0.00  0.00  0.98  0.00
  HS02004785HS02004788    1.00   0.00  0.00  0.00  1.00  0.00  0.00  0.00  0.00  0.00
  HS02004777HS02004785    1.00   0.00  0.00  0.00  1.00  0.00  0.00  0.00  0.20  0.00
  HS02004480HS02004478    1.00   0.04  0.00  0.00  0.74  0.00  0.00  0.22  0.00  0.00
  HS02004479HS02004480    1.00   0.02  0.00  0.00  0.98  0.00  0.00  0.00  0.15  0.00
  HS02004862HS02004870    1.00   0.00  0.00  0.00  1.00  0.00  0.00  0.00  0.06  0.00
  HS02004848HS02004852    1.00   0.04  0.00  0.00  0.96  0.00  0.00  0.00  0.71  0.00
  HS02004856HS02004862    1.00   0.00  0.06  0.00  0.94  0.00  0.00  0.00  0.75  0.00
  HS02004852HS02004856    1.00   0.04  0.01  0.00  0.95  0.00  0.00  0.00  0.83  0.00
  HS02004802HS02004478    1.00   0.04  0.00  0.00  0.95  0.00  0.00  0.00  0.01  0.00
  HS02004478WS02006287    1.00   0.05  0.00  0.00  0.85  0.10  0.00  0.00  0.74  0.00
  HS02004817HS02004807    1.00   0.00  0.04  0.00  0.96  0.00  0.00  0.00  0.00  0.00
  HS02004807HS02004802    1.00   0.04  0.00  0.00  0.96  0.00  0.00  0.00  0.01  0.00
  YS02001759YS02001757    1.00   0.00  0.00  0.00  1.00  0.00  0.00  0.00  0.17  0.00
  YS02001762YS02001759    1.00   0.00  0.00  0.00  1.00  0.00  0.00  0.00  0.04  0.00
  YS02001765YS02001762    1.00   0.00  0.00  0.00  1.00  0.00  0.00  0.00  0.21  0.00
  YS02001770YS02001767    1.00   0.00  0.00  0.00  1.00  0.00  0.00  0.00  0.00  0.00
  YS02001774YS02001770    1.00   0.00  0.05  0.00  0.95  0.00  0.00  0.00  0.06  0.00
  YS02001779YS02001774    1.00   0.00  0.00  0.00  1.00  0.00  0.00  0.00  0.26  0.00
  YS02001649YS02001757    1.00   0.00  0.00  0.00  1.00  0.00  0.00  0.00  0.19  0.00
  YS02001767YS02001765    1.00   0.00  0.00  0.00  1.00  0.00  0.00  0.00  0.01  0.00
  YS02006561YS02001783    1.00   0.07  0.00  0.00  0.87  0.06  0.00  0.00  0.72  0.00
  YS02001783YS02001784    1.00   0.00  0.07  0.00  0.93  0.00  0.00  0.00  0.00  0.00
  YS02001784YS02001785    1.00   0.00  0.00  0.00  1.00  0.00  0.00  0.00  0.25  0.00
  YS02001788YS02001790    1.00   0.00  0.00  0.00  0.95  0.05  0.00  0.00  0.27  0.00
  YS02001790YS02001791    1.00   0.00  0.00  0.00  0.89  0.11  0.00  0.00  0.04  0.00
  YS02001791YS02001793    1.00   0.00  0.00  0.00  0.89  0.11  0.00  0.00  0.00  0.00
  YS02001910YS02001907    1.00   0.00  0.00  0.00  0.99  0.00  0.00  0.00  0.13  0.00
  YS02001786YS02001788    1.00   0.00  0.00  0.00  0.95  0.05  0.00  0.00  0.00  0.00
  YS02001915YS02001910    1.00   0.00  0.00  0.00  1.00  0.00  0.00  0.00  0.23  0.00
  YS02001918YS02001915    1.00   0.00  0.00  0.00  1.00  0.00  0.00  0.00  0.70  0.00
  YS02001923YS02001920    1.00   0.00  0.00  0.00  1.00  0.00  0.00  0.00  1.00  0.00
  YS02001926YS02001923    1.00   0.00  0.03  0.00  0.00  0.00  0.97  0.00  0.00  0.00
  YS02001929YS02001926    1.00   0.00  0.04  0.00  0.96  0.00  0.00  0.00  0.87  0.00
  YS02001920YS02001918    1.00   0.00  0.00  0.00  1.00  0.00  0.00  0.00  0.00  0.00
  YS02001629YS02163301    1.00   0.06  0.00  0.00  0.94  0.00  0.00  0.00  0.00  0.00
  YS02001619YS02001622    1.00   0.04  0.00  0.00  0.96  0.00  0.00  0.00  0.00  0.00
  YS02001622YS02001625    1.00   0.04  0.00  0.00  0.96  0.00  0.00  0.00  0.12  0.00
  YS02001625YS02001629    1.00   0.04  0.02  0.00  0.92  0.00  0.01  0.00  0.00  0.00
  YS02163301YS02001633    1.00   0.00  0.06  0.00  0.94  0.00  0.00  0.00  0.00  0.00
  YS02163601YS02164001    1.00   0.00  0.03  0.00  0.97  0.00  0.00  0.00  0.00  0.00
  YS02164001YS02001641    1.00   0.00  0.03  0.00  0.97  0.00  0.00  0.00  0.07  0.00
  YS02001641YS02001644    1.00   0.00  0.00  0.00  1.00  0.00  0.00  0.00  0.00  0.00
  YS02001647YS02001649    1.00   0.00  0.06  0.00  0.94  0.00  0.00  0.00  0.01  0.00
  YS02006553YS02006556    1.00   0.00  0.00  0.00  1.00  0.00  0.00  0.00  0.03  0.00
  YS02006556YS02006558    1.00   0.00  0.00  0.00  1.00  0.00  0.00  0.00  0.00  0.00
  YSB6556YSB1171          1.00   0.02  0.02  0.00  0.96  0.00  0.00  0.00  0.00  0.00
  YS02001907YS02006553    1.00   0.00  0.00  0.00  1.00  0.00  0.00  0.00  0.00  0.00
  YS02006558YS02006561    1.00   0.07  0.00  0.00  0.00  0.93  0.00  0.00  0.62  0.00
  YS02001633YS02163601    1.00   0.00  0.00  0.00  1.00  0.00  0.00  0.00  0.19  0.00
  YS02001644YS02001647    1.00   0.00  0.06  0.00  0.94  0.00  0.00  0.00  0.00  0.00
  YS02001745YS02001748    1.00   0.00  0.00  0.00  0.89  0.01  0.00  0.10  0.11  0.00
  YS02001748YS02001751    1.00   0.00  0.00  0.00  0.98  0.02  0.00  0.00  0.23  0.00
  YS02001751YS02001754    1.00   0.00  0.00  0.00  0.93  0.00  0.00  0.07  0.01  0.00
  YS02001754YS02001757    1.00   0.00  0.00  0.00  1.00  0.00  0.00  0.00  0.26  0.00
  YS02001882YS02001884    1.00   0.05  0.00  0.00  0.94  0.00  0.00  0.00  0.00  0.00
  YS02001884YS02001887    1.00   0.03  0.01  0.00  0.96  0.00  0.00  0.00  0.00  0.00
  YS02001890YS02001895    1.00   0.00  0.06  0.00  0.94  0.00  0.00  0.00  0.00  0.00
  YS02001895YS02001898    1.00   0.06  0.00  0.00  0.93  0.00  0.01  0.00  0.00  0.00
  YS02001898YS02001901    1.00   0.06  0.00  0.00  0.94  0.00  0.00  0.00  0.02  0.00
  YS02001901YS02001904    1.00   0.06  0.00  0.00  0.94  0.00  0.00  0.00  0.00  0.00
  YS02001904YS02001907    1.00   0.00  0.06  0.00  0.94  0.00  0.00  0.00  0.00  0.00
  YS02001887YS02001890    1.00   0.00  0.00  0.00  0.99  0.00  0.01  0.00  0.00  0.00
  YS02001652YS02001649    1.00   0.00  0.00  0.00  1.00  0.00  0.00  0.00  0.25  0.00
  YS02001655YS02001652    1.00   0.00  0.00  0.00  0.93  0.00  0.00  0.07  0.01  0.00
  YS02001658YS02001655    1.00   0.00  0.05  0.00  0.93  0.02  0.00  0.00  0.09  0.00
  YS02001661YS02001658    1.00   0.05  0.00  0.00  0.89  0.06  0.00  0.00  0.13  0.00
  YS02001664YS02001661    1.00   0.04  0.00  0.00  0.81  0.15  0.00  0.00  0.48  0.00
  YSB1154YSB6556          1.00   0.04  0.00  0.00  0.96  0.00  0.00  0.00  0.02  0.00
  YSB1174YSB1171          1.00   0.03  0.01  0.00  0.97  0.00  0.00  0.00  0.00  0.00
  YSB1171HS02004479       1.00   0.02  0.00  0.00  0.97  0.00  0.00  0.01  0.13  0.00
  HS02004881HS02006253    1.00   0.03  0.00  0.00  0.91  0.00  0.00  0.05  0.71  0.00
  YS02001793JiankangQianchi    1.00   0.00  0.00  0.00  0.97  0.03  0.00  0.00  0.19  0.00
  YS02001757CaochengTiaoxuchi    1.00   0.00  0.08  0.00  0.92  0.00  0.00  0.00  0.00  0.00
  WSF200WS02003060        1.00   0.00  0.04  0.00  0.96  0.00  0.00  0.00  0.67  0.00
  1                       1.00   0.00  0.00  0.00  0.00  1.00  0.00  0.00  0.20  0.00
  2                       1.00   1.00  0.00  0.00  0.00  0.00  0.00  0.00  0.00  0.00
  3                       1.00   0.98  0.00  0.00  0.00  0.02  0.00  0.00  0.96  0.00
  4                       1.00   1.00  0.00  0.00  0.00  0.00  0.00  0.00  0.00  0.00
  
  
  *************************
  Conduit Surcharge Summary
  *************************
  
  ----------------------------------------------------------------------------
                                                           Hours        Hours 
                         --------- Hours Full --------   Above Full   Capacity
  Conduit                Both Ends  Upstream  Dnstream   Normal Flow   Limited
  ----------------------------------------------------------------------------
  WS02006229WS02006228        0.41      0.45      0.41      0.93         0.41
  WS02006256WS02006235        5.60      5.60      6.68      0.14         0.01
  WS02006249WS02006248        0.01      0.01      0.01      5.54         0.01
  WS02006247WS02006245        0.01      0.01      0.01      5.55         0.01
  WS02006235WS02006234        0.01      0.01      0.01      5.60         0.01
  WS02006231WS02006230        0.01      0.01      0.01      5.61         0.01
  WS02006230WS02006229        0.66      0.77      0.66      5.71         0.66
  WS02006228WS02006109        0.43      0.54      0.43      2.44         0.43
  WS02006111WS02006112        0.01      0.01      1.05      0.01         0.01
  WS02006110WS02006113        0.01      0.01      0.48      0.01         0.01
  WS02006109WS02006110        0.01      0.01      0.54      0.01         0.01
  WS02004404WS02004405        0.01      0.01      0.01      5.66         0.01
  WS02003072WS02003073        0.01      0.01      0.01      5.57         0.01
  YS02001759YS02001757        5.38      5.38      5.46      0.01         0.01
  YS02001762YS02001759        5.35      5.35      5.38      0.01         0.02
  YS02001765YS02001762        5.31      5.31      5.35      0.01         0.01
  YS02001770YS02001767        5.27      5.27      5.28      0.01         0.61
  YS02001774YS02001770        5.23      5.23      5.34      0.01         0.01
  YS02001779YS02001774        4.32      4.32      5.34      0.01         0.01
  YS02001649YS02001757        5.36      5.36      5.46      0.01         0.01
  YS02001767YS02001765        5.28      5.28      5.31      0.01         0.02
  YS02001784YS02001785        0.01      0.01      0.01      0.46         0.01
  YS02001788YS02001790        0.01      0.01      5.30      0.01         0.01
  YS02001790YS02001791        5.30      5.30      5.32      0.01         0.01
  YS02001791YS02001793        5.32      5.32      5.36      0.01         0.01
  YS02001629YS02163301        5.20      5.20      5.27      0.01         0.01
  YS02001619YS02001622        3.51      3.51      3.71      0.01         0.01
  YS02001622YS02001625        3.71      3.71      5.05      0.01         0.01
  YS02001625YS02001629        3.55      3.55      5.05      0.01         0.01
  YS02163301YS02001633        5.27      5.27      5.33      0.01         0.01
  YS02163601YS02164001        5.32      5.32      5.36      0.01         0.01
  YS02164001YS02001641        5.32      5.32      5.33      0.01         0.01
  YS02001641YS02001644        5.33      5.33      5.33      0.01         0.85
  YS02001647YS02001649        4.98      4.98      5.36      0.01         0.01
  YS02001907YS02006553        0.46      0.46      0.78      0.01         0.01
  YS02006558YS02006561        0.01      0.01      0.01      0.12         0.01
  YS02001633YS02163601        5.30      5.30      5.36      0.01         0.01
  YS02001644YS02001647        4.98      4.98      5.33      0.01         0.01
  YS02001748YS02001751        0.80      0.80      3.80      0.01         0.01
  YS02001751YS02001754        3.80      3.80      4.50      0.01         0.01
  YS02001754YS02001757        4.96      4.96      5.46      0.01         0.01
  YS02001652YS02001649        5.03      5.03      5.36      0.01         0.01
  YS02001655YS02001652        3.92      3.92      4.79      0.01         0.01
  YS02001658YS02001655        0.01      0.01      3.92      0.01         0.01
  YS02001661YS02001658        0.01      0.01      0.01      0.01         0.01
  YS02001793JiankangQianchi        5.35      5.35      5.87      0.01         0.01
  YS02001757CaochengTiaoxuchi        2.61      2.61      5.46      0.01         0.01
  
  
  ***************
  Pumping Summary
  ***************
  
  ---------------------------------------------------------------------------------------------------------
                                                  Min       Avg       Max     Total     Power    % Time Off
                        Percent   Number of      Flow      Flow      Flow    Volume     Usage    Pump Curve
  Pump                 Utilized   Start-Ups       LPS       LPS       LPS  10^6 ltr     Kw-hr    Low   High
  ---------------------------------------------------------------------------------------------------------
  CC-Pump-1                0.00           0      0.00      0.00      0.00     0.000      0.00    0.0    0.0
  CC-Pump-2               71.61           1      0.00    199.29    200.00     4.012      8.28    0.0   12.1
  JK-Pump-1               12.77           1      0.00    100.51    299.57     0.094      1.48    0.0    0.0
  JK-Pump-2               12.77           1      0.00    100.51    299.57     0.094      1.48    0.0    0.0
  XR-Pump-1               91.49           2      0.00     92.06     95.00     2.394     56.22    0.0    0.0
  XR-Pump-2               91.48           2      0.00     93.52     95.00     2.394     58.83    0.0    0.0
  XR-Pump-3               97.86           1      0.00     94.30     95.00     2.593     62.02    0.0    0.0
  XR-Pump-4               97.86           1      0.00     94.30     95.00     2.593     62.02    0.0    0.0
  

  Analysis begun on:  Thu Jan  6 00:34:44 2022
  Analysis ended on:  Thu Jan  6 00:34:47 2022
  Total elapsed time: 00:00:03