
  EPA STORM WATER MANAGEMENT MODEL - VERSION 5.1 (Build 5.3.0.dev0)
  --------------------------------------------------------------

  WARNING 04: minimum elevation drop used for Conduit WS02004404WS02004405
  WARNING 03: negative offset ignored for Link YS02001904YS02001907
  
  *********************************************************
  NOTE: The summary statistics displayed in this report are
  based on results found at every computational time step,  
  not just on results from each reporting time step.
  *********************************************************
  
  ****************
  Analysis Options
  ****************
  Flow Units ............... LPS
  Process Models:
    Rainfall/Runoff ........ YES
    RDII ................... NO
    Snowmelt ............... NO
    Groundwater ............ NO
    Flow Routing ........... YES
    Ponding Allowed ........ NO
    Water Quality .......... NO
  Infiltration Method ...... HORTON
  Flow Routing Method ...... DYNWAVE
  Surcharge Method ......... EXTRAN
  Starting Date ............ 08/28/2015 08:00:00
  Ending Date .............. 08/28/2015 15:50:00
  Antecedent Dry Days ...... 8.0
  Report Time Step ......... 00:01:00
  Wet Time Step ............ 00:01:00
  Dry Time Step ............ 00:01:00
  Routing Time Step ........ 5.00 sec
  Variable Time Step ....... YES
  Maximum Trials ........... 8
  Number of Threads ........ 4
  Head Tolerance ........... 0.001500 m
  
  
  **************************        Volume         Depth
  Runoff Quantity Continuity     hectare-m            mm
  **************************     ---------       -------
  Total Precipitation ......         2.592         5.674
  Evaporation Loss .........         0.000         0.000
  Infiltration Loss ........         0.650         1.423
  Surface Runoff ...........         1.068         2.339
  Final Storage ............         0.874         1.914
  Continuity Error (%) .....        -0.018
  
  
  **************************        Volume        Volume
  Flow Routing Continuity        hectare-m      10^6 ltr
  **************************     ---------     ---------
  Dry Weather Inflow .......         0.616         6.165
  Wet Weather Inflow .......         1.067        10.674
  Groundwater Inflow .......         0.000         0.000
  RDII Inflow ..............         0.000         0.000
  External Inflow ..........         0.102         1.024
  External Outflow .........         1.592        15.916
  Flooding Loss ............         0.172         1.721
  Evaporation Loss .........         0.000         0.000
  Exfiltration Loss ........         0.000         0.000
  Initial Stored Volume ....         0.076         0.761
  Final Stored Volume ......         0.302         3.022
  Continuity Error (%) .....       -10.936
  
  
  *************************
  Highest Continuity Errors
  *************************
  Node HS02004842 (29.33%)
  Node YS02001884 (23.62%)
  Node YS02001774 (13.16%)
  Node YSB1171 (7.30%)
  Node HS02004901 (5.79%)
  
  
  ***************************
  Time-Step Critical Elements
  ***************************
  Link WS02006252WS02006251 (91.84%)
  Link WS02006280WS02006229 (2.39%)
  Link 3 (1.99%)
  
  
  ********************************
  Highest Flow Instability Indexes
  ********************************
  Link WS02006113WS02006111 (51)
  Link WS02006111WS02006112 (28)
  Link YS02001655YS02001652 (3)
  Link YS02001751YS02001754 (2)
  Link YS02001644YS02001647 (2)
  
  
  *************************
  Routing Time Step Summary
  *************************
  Minimum Time Step           :     0.31 sec
  Average Time Step           :     0.89 sec
  Maximum Time Step           :     5.00 sec
  Percent in Steady State     :    -0.00
  Average Iterations per Step :     2.17
  Percent Not Converging      :     2.11
  
  
  ***************************
  Subcatchment Runoff Summary
  ***************************
  
  ------------------------------------------------------------------------------------------------------------------------------
                            Total      Total      Total      Total     Imperv       Perv      Total       Total     Peak  Runoff
                           Precip      Runon       Evap      Infil     Runoff     Runoff     Runoff      Runoff   Runoff   Coeff
  Subcatchment                 mm         mm         mm         mm         mm         mm         mm    10^6 ltr      LPS
  ------------------------------------------------------------------------------------------------------------------------------
  sub0                       5.67       0.00       0.00       0.40       4.01       0.00       4.01        0.00     1.40   0.707
  sub1                       5.67       0.00       0.00       0.62       3.80       0.00       3.80        0.03     7.20   0.669
  sub2                       5.67       0.00       0.00       2.10       2.67       0.00       2.67        0.02     6.34   0.470
  sub3                       5.67       0.00       0.00       2.10       2.64       0.00       2.64        0.06    12.98   0.464
  sub4                       5.67       0.00       0.00       0.62       3.66       0.00       3.66        0.08    14.49   0.645
  sub5                       5.67       0.00       0.00       0.40       3.97       0.00       3.97        0.04    12.81   0.699
  sub7                       5.67       0.00       0.00       0.51       3.91       0.00       3.91        0.01     4.56   0.689
  sub8                       5.67       0.00       0.00       0.51       3.90       0.00       3.90        0.02     8.01   0.687
  sub9                       5.67       0.00       0.00       0.51       3.90       0.00       3.90        0.02     5.94   0.687
  sub10                      5.67       0.00       0.00       0.45       3.93       0.00       3.93        0.04    12.81   0.693
  sub11                      5.67       0.00       0.00       0.45       3.95       0.00       3.95        0.05    15.10   0.695
  sub12                      5.67       0.00       0.00       0.74       3.75       0.00       3.75        0.03    12.89   0.661
  sub14                      5.67       0.00       0.00       0.51       3.90       0.00       3.90        0.04    11.60   0.687
  sub15                      5.67       0.00       0.00       1.70       2.99       0.00       2.99        0.05    15.72   0.528
  sub16                      5.67       0.00       0.00       1.87       2.88       0.00       2.88        0.03    11.30   0.508
  sub17                      5.67       0.00       0.00       1.82       2.92       0.00       2.92        0.03     9.11   0.515
  sub22                      5.67       0.00       0.00       2.44       2.45       0.00       2.45        0.15    51.67   0.431
  sub23                      5.67       0.00       0.00       2.10       2.71       0.00       2.71        0.13    44.04   0.477
  sub60                      5.67       0.00       0.00       0.68       2.60       0.00       2.60        0.79    71.62   0.458
  sub61                      5.67       0.00       0.00       0.96       2.79       0.00       2.79        0.86    90.46   0.491
  sub62                      5.67       0.00       0.00       0.45       2.99       0.00       2.99        0.92    92.26   0.526
  sub63                      5.67       0.00       0.00       1.65       2.49       0.00       2.49        0.75    84.67   0.438
  sub64                      5.67       0.00       0.00       0.85       2.48       0.00       2.48        0.75    68.00   0.437
  sub65                      5.67       0.00       0.00       0.74       2.51       0.00       2.51        0.77    68.98   0.443
  sub66                      5.67       0.00       0.00       1.65       2.17       0.00       2.17        0.66    62.44   0.382
  sub67                      5.67       0.00       0.00       0.45       3.30       0.00       3.30        1.02   119.23   0.581
  sub68                      5.67       0.00       0.00       0.79       2.97       0.00       2.97        0.91   100.20   0.523
  sub69                      5.67       0.00       0.00       0.85       3.22       0.00       3.22        0.75   100.31   0.567
  sub70                      5.67       3.28       0.00       3.05       3.92       0.00       3.92        0.90    79.28   0.438
  sub71                      5.67       0.00       0.00       0.45       2.85       0.00       2.85        0.67    64.24   0.503
  sub72                      5.67       0.00       0.00       0.40       2.00       0.00       2.00        0.41    30.10   0.352
  sub73                      5.67       3.81       0.00       3.23       3.97       0.00       3.97        0.93    67.93   0.418
  sub74                      5.67       0.00       0.00       4.26       0.97       0.00       0.97        0.39    56.14   0.171
  
  
  ******************
  Node Depth Summary
  ******************
  
  ---------------------------------------------------------------------------------
                                 Average  Maximum  Maximum  Time of Max    Reported
                                   Depth    Depth      HGL   Occurrence   Max Depth
  Node                 Type       Meters   Meters   Meters  days hr:min      Meters
  ---------------------------------------------------------------------------------
  WS02001211           JUNCTION     0.74     0.78     5.62     0  02:50        0.78
  WS02001212           JUNCTION     0.45     0.49     5.55     0  02:49        0.49
  WS02001213           JUNCTION     0.68     0.73     5.49     0  02:48        0.73
  WS02003069           JUNCTION     0.45     0.53     5.11     0  02:47        0.53
  WS02003072           JUNCTION     0.52     0.59     4.96     0  02:47        0.59
  WS02003073           JUNCTION     0.31     0.36     4.42     0  02:48        0.36
  WS02003060           JUNCTION     0.40     0.47     5.40     0  02:46        0.47
  WS02003066           JUNCTION     0.21     0.26     5.81     0  02:45        0.26
  WS02003059           JUNCTION     0.73     0.78     5.46     0  02:47        0.78
  WS02003067           JUNCTION     0.53     0.64     5.96     0  02:44        0.64
  WS02004401           JUNCTION     0.60     0.74     6.74     0  02:40        0.73
  WS02004402           JUNCTION     0.63     0.77     6.73     0  02:40        0.77
  WS02004403           JUNCTION     0.66     0.79     6.72     0  02:40        0.79
  WS02004404           JUNCTION     0.73     0.86     6.71     0  02:40        0.86
  WS02004406           JUNCTION     0.75     0.87     6.70     0  02:40        0.87
  WS02004409           JUNCTION     0.42     0.55     6.32     0  02:43        0.55
  WS02004410           JUNCTION     0.44     0.57     6.29     0  02:44        0.57
  WS02004411           JUNCTION     0.46     0.59     6.27     0  02:44        0.59
  WS02004412           JUNCTION     0.48     0.60     6.24     0  02:44        0.60
  WS02004413           JUNCTION     0.64     0.77     6.24     0  02:44        0.77
  WS02004405           JUNCTION     0.73     0.86     6.71     0  02:40        0.86
  WS02006109           JUNCTION     0.67     0.81     7.43     0  02:35        0.81
  WS02006110           JUNCTION     0.68     0.80     7.39     0  02:35        0.80
  WS02006111           JUNCTION     0.19     0.24     6.95     0  02:36        0.24
  WS02006112           JUNCTION     0.76     0.91     6.79     0  02:39        0.91
  WS02006113           JUNCTION     0.29     0.38     7.27     0  02:35        0.38
  WS02006115           JUNCTION     0.49     0.62     6.76     0  02:40        0.62
  WS02006116           JUNCTION     0.57     0.71     6.75     0  02:40        0.71
  WS02006230           JUNCTION     0.60     0.77     7.52     0  02:35        0.77
  WS02006231           JUNCTION     0.39     0.51     7.63     0  03:26        0.51
  WS02006232           JUNCTION     0.52     0.65     7.69     0  03:27        0.65
  WS02006234           JUNCTION     0.42     0.57     7.72     0  03:27        0.57
  WS02006235           JUNCTION     0.45     0.60     7.76     0  03:28        0.60
  WS02006238           JUNCTION     0.48     0.62     7.77     0  03:28        0.62
  WS02006240           JUNCTION     0.40     0.51     7.81     0  03:28        0.51
  WS02006242           JUNCTION     0.47     0.57     7.84     0  03:28        0.57
  WS02006243           JUNCTION     0.36     0.44     7.86     0  03:28        0.44
  WS02006245           JUNCTION     0.36     0.42     7.90     0  03:28        0.42
  WS02006247           JUNCTION     0.38     0.44     7.94     0  02:35        0.44
  WS02006248           JUNCTION     0.33     0.39     7.98     0  02:34        0.39
  WS02006249           JUNCTION     0.38     0.43     8.03     0  02:31        0.43
  WS02006239           JUNCTION     0.44     0.58     7.79     0  03:28        0.58
  WS02006251           JUNCTION     0.37     0.43     8.10     0  02:29        0.43
  WS02006252           JUNCTION     0.32     0.35     8.59     0  02:23        0.35
  WS02006253           JUNCTION     0.39     0.45     8.10     0  02:28        0.45
  WS02006256           JUNCTION     0.74     1.19     8.12     0  00:30        1.19
  WS02004138           JUNCTION     0.18     0.19     7.44     0  01:20        0.19
  WS02004407           JUNCTION     0.19     0.25     6.56     0  02:41        0.25
  WS02006228           JUNCTION     0.65     0.82     7.47     0  02:35        0.82
  WS02006229           JUNCTION     0.62     0.79     7.49     0  02:35        0.79
  WS02006280           JUNCTION     0.05     0.14     8.41     0  02:18        0.14
  WS02006284           JUNCTION     0.35     0.48     8.88     0  02:18        0.48
  WS02006287           JUNCTION     0.07     0.21     9.16     0  02:18        0.21
  WSF200               JUNCTION     0.18     0.25     5.48     0  03:33        0.25
  HS02004901           JUNCTION     0.11     0.23    10.05     0  02:15        0.23
  HS02004881           JUNCTION     0.01     0.02     9.05     0  02:17        0.02
  HS02004876           JUNCTION     0.03     0.10     9.13     0  02:16        0.10
  HS02004870           JUNCTION     0.01     0.04     9.33     0  02:18        0.04
  HS02004862           JUNCTION     0.01     0.05     9.43     0  02:19        0.05
  HS02004856           JUNCTION     0.07     0.10     9.53     0  02:18        0.10
  HS02004852           JUNCTION     0.01     0.03     9.54     0  02:19        0.03
  HS02004848           JUNCTION     0.01     0.03     9.63     0  02:17        0.03
  HS02004842           JUNCTION     0.33     0.36     9.63     0  02:17        0.36
  HS02004837           JUNCTION     0.03     0.05     9.63     0  02:17        0.05
  HS02004830           JUNCTION     0.04     0.06     9.53     0  02:18        0.06
  HS02004824           JUNCTION     0.02     0.04     9.44     0  02:21        0.04
  HS02004817           JUNCTION     0.42     0.52     9.37     0  02:18        0.52
  HS02004807           JUNCTION     0.11     0.20     9.37     0  02:18        0.20
  HS02004802           JUNCTION     0.15     0.23     9.36     0  02:18        0.23
  HS02004799           JUNCTION     0.09     0.25     9.46     0  02:16        0.25
  HS02004792           JUNCTION     0.02     0.10     9.62     0  02:15        0.10
  HS02004788           JUNCTION     0.02     0.07     9.97     0  02:17        0.07
  HS02004785           JUNCTION     0.03     0.13    10.03     0  02:16        0.13
  HS02004777           JUNCTION     0.13     0.25    10.05     0  02:16        0.25
  HS02004770           JUNCTION     0.10     0.22    10.05     0  02:16        0.22
  HS02004480           JUNCTION     0.06     0.20     9.44     0  02:17        0.20
  HS02004479           JUNCTION     0.10     0.23     9.44     0  02:17        0.23
  HS02004478           JUNCTION     0.05     0.12     9.35     0  02:18        0.12
  YS02001745           JUNCTION     0.08     0.11     7.63     0  03:00        0.11
  YS02001748           JUNCTION     0.36     0.48     7.56     0  04:56        0.48
  YS02001751           JUNCTION     0.54     0.68     7.56     0  04:57        0.68
  YS02001754           JUNCTION     0.79     0.96     7.57     0  04:56        0.96
  YS02001762           JUNCTION     0.99     1.19     7.59     0  04:21        1.15
  YS02001765           JUNCTION     0.94     1.15     7.60     0  04:21        1.10
  YS02001767           JUNCTION     0.90     1.13     7.62     0  03:36        1.06
  YS02001770           JUNCTION     0.90     1.06     7.56     0  04:27        1.06
  YS02001774           JUNCTION     0.97     1.13     7.55     0  05:09        1.13
  YS02001779           JUNCTION     0.72     0.87     7.55     0  05:09        0.87
  YS02001882           JUNCTION     0.27     0.44     7.16     0  02:52        0.44
  YS02001884           JUNCTION     0.37     0.54     7.16     0  02:51        0.54
  YS02001759           JUNCTION     1.02     1.21     7.57     0  04:21        1.19
  YS02001887           JUNCTION     0.45     0.62     7.16     0  02:51        0.62
  YS02001890           JUNCTION     0.48     0.65     7.16     0  02:52        0.65
  YS02001898           JUNCTION     0.25     0.41     7.14     0  02:52        0.41
  YS02001901           JUNCTION     0.36     0.53     7.14     0  02:53        0.53
  YS02001904           JUNCTION     0.34     0.51     7.14     0  02:53        0.51
  YS02001907           JUNCTION     0.67     0.85     7.14     0  02:52        0.85
  YS02001910           JUNCTION     0.46     0.63     7.14     0  02:52        0.63
  YS02001915           JUNCTION     0.26     0.42     7.14     0  02:52        0.42
  YS02001918           JUNCTION     0.07     0.09     7.16     0  03:03        0.09
  YS02001619           JUNCTION     0.50     0.63     7.56     0  05:04        0.63
  YS02001629           JUNCTION     0.85     1.00     7.55     0  05:02        1.00
  YS02001641           JUNCTION     0.95     1.16     7.60     0  04:26        1.13
  YS02001644           JUNCTION     0.96     1.14     7.58     0  04:19        1.13
  YS02001652           JUNCTION     0.80     0.97     7.56     0  04:53        0.96
  YS02001655           JUNCTION     0.57     0.71     7.56     0  04:52        0.70
  YS02001920           JUNCTION     0.17     0.20     7.21     0  03:02        0.20
  YS02001923           JUNCTION     0.06     0.08     7.34     0  03:02        0.08
  YS02001926           JUNCTION     0.14     0.17     7.62     0  03:01        0.17
  YS02001929           JUNCTION     0.06     0.08     7.78     0  03:01        0.08
  YS02001658           JUNCTION     0.30     0.41     7.56     0  04:58        0.41
  YS02001661           JUNCTION     0.14     0.19     7.60     0  02:44        0.19
  YS02001664           JUNCTION     0.07     0.11     8.04     0  02:44        0.11
  YS02001622           JUNCTION     0.52     0.65     7.55     0  05:08        0.65
  YS02001633           JUNCTION     0.94     1.16     7.61     0  04:19        1.11
  YS02001649           JUNCTION     1.00     1.16     7.55     0  05:11        1.16
  YS02001757           JUNCTION     1.12     1.29     7.55     0  05:06        1.29
  YS02001895           JUNCTION     0.24     0.40     7.15     0  02:53        0.40
  YS02001625           JUNCTION     0.80     0.95     7.56     0  05:05        0.95
  YS02163301           JUNCTION     0.88     1.09     7.61     0  04:22        1.04
  YS02163601           JUNCTION     0.99     1.21     7.61     0  04:19        1.17
  YS02164001           JUNCTION     0.93     1.15     7.61     0  04:26        1.11
  YS02001647           JUNCTION     0.79     0.95     7.56     0  05:05        0.95
  YSB1154              JUNCTION     0.23     0.38     9.44     0  02:16        0.38
  YSB6556              JUNCTION     0.13     0.27     9.44     0  02:17        0.27
  YSB1174              JUNCTION     0.19     0.33     9.44     0  02:16        0.33
  YSB1171              JUNCTION     0.39     0.53     9.44     0  02:17        0.53
  YS02006553           JUNCTION     0.68     0.85     7.14     0  02:52        0.85
  YS02006561           JUNCTION     0.13     0.22     6.88     0  02:53        0.22
  YS02006556           JUNCTION     0.65     0.82     7.14     0  02:53        0.82
  YS02006558           JUNCTION     0.69     0.87     7.13     0  02:53        0.87
  YS02001783           JUNCTION     0.41     0.64     6.79     0  02:42        0.60
  YS02001784           JUNCTION     0.47     0.72     6.79     0  02:42        0.71
  YS02001786           JUNCTION     0.48     0.71     6.74     0  02:42        0.71
  YS02001788           JUNCTION     0.50     0.74     6.72     0  02:41        0.71
  YS02001790           JUNCTION     0.76     1.96     7.60     0  02:39        1.02
  YS02001791           JUNCTION     0.88     2.65     8.12     0  02:37        1.16
  YS02001793           JUNCTION     1.40     2.24     7.07     0  02:35        1.78
  WS02004139           JUNCTION     0.69     0.73     5.64     0  02:50        0.73
  WSC                  OUTFALL      0.31     0.36     1.03     0  02:48        0.36
  3                    OUTFALL      0.02     0.19     6.19     0  00:30        0.19
  4                    OUTFALL      0.00     0.00     7.00     0  00:00        0.00
  5                    OUTFALL      0.00     0.00     5.00     0  00:00        0.00
  JK-storage           STORAGE      5.11     5.80     6.60     0  02:40        5.80
  CC-storage           STORAGE      0.37     0.53     7.53     0  05:15        0.53
  XR-storage           STORAGE      0.53     5.10     3.10     0  00:21        5.10
  
  
  *******************
  Node Inflow Summary
  *******************
  
  -------------------------------------------------------------------------------------------------
                                  Maximum  Maximum                  Lateral       Total        Flow
                                  Lateral    Total  Time of Max      Inflow      Inflow     Balance
                                   Inflow   Inflow   Occurrence      Volume      Volume       Error
  Node                 Type           LPS      LPS  days hr:min    10^6 ltr    10^6 ltr     Percent
  -------------------------------------------------------------------------------------------------
  WS02001211           JUNCTION      7.35   388.18     0  04:23       0.207        9.74       0.434
  WS02001212           JUNCTION      0.00   388.79     0  04:23           0         9.7       0.243
  WS02001213           JUNCTION      0.00   389.40     0  04:22           0        9.68       0.261
  WS02003069           JUNCTION      0.32   787.79     0  02:46     0.00902        15.3       0.204
  WS02003072           JUNCTION      0.00   787.76     0  02:47           0        15.3       0.247
  WS02003073           JUNCTION      1.82   789.58     0  02:48      0.0514        15.3       0.280
  WS02003060           JUNCTION     16.53   787.45     0  02:46       0.466        15.4       0.192
  WS02003066           JUNCTION      0.00   385.61     0  02:44           0        5.28       0.071
  WS02003059           JUNCTION      0.00   390.45     0  04:22           0        9.66       0.434
  WS02003067           JUNCTION      0.00   385.60     0  02:44           0        5.29       0.154
  WS02004401           JUNCTION      0.00   389.86     0  02:38           0         5.5       0.345
  WS02004402           JUNCTION      0.00   389.20     0  02:39           0        5.48       0.329
  WS02004403           JUNCTION      0.00   388.83     0  02:39           0        5.46       0.303
  WS02004404           JUNCTION      0.16   388.82     0  02:40     0.00457        5.45       0.233
  WS02004406           JUNCTION      0.00   388.70     0  02:40           0        5.42       0.570
  WS02004409           JUNCTION      0.00   388.62     0  02:41           0        5.38       0.245
  WS02004410           JUNCTION      0.00   387.43     0  02:42           0        5.37       0.283
  WS02004411           JUNCTION      0.00   386.53     0  02:42           0        5.35       0.296
  WS02004412           JUNCTION      0.00   385.99     0  02:43           0        5.34       0.327
  WS02004413           JUNCTION      0.00   385.70     0  02:44           0        5.32       0.497
  WS02004405           JUNCTION      0.04   388.77     0  02:40     0.00107        5.44       0.349
  WS02006109           JUNCTION      1.23   390.37     0  02:34      0.0347        5.58       0.364
  WS02006110           JUNCTION      0.00   390.35     0  02:35           0        5.56       0.336
  WS02006111           JUNCTION      0.00   398.15     0  02:35           0        5.53       0.068
  WS02006112           JUNCTION      9.11   395.44     0  02:35      0.0251        5.56       0.485
  WS02006113           JUNCTION      0.00   390.36     0  02:35           0        5.54       0.140
  WS02006115           JUNCTION      0.00   392.94     0  02:36           0        5.53       0.309
  WS02006116           JUNCTION      0.00   390.95     0  02:38           0        5.51       0.288
  WS02006230           JUNCTION     10.28   323.29     0  03:32        0.29        4.72       0.237
  WS02006231           JUNCTION      0.00   312.85     0  03:31           0        4.43       0.151
  WS02006232           JUNCTION      0.00   312.77     0  03:31           0        4.44       0.321
  WS02006234           JUNCTION      0.00   312.69     0  03:31           0        4.45       0.156
  WS02006235           JUNCTION      0.00   312.65     0  03:31           0        4.48       0.180
  WS02006238           JUNCTION      0.00   231.61     0  04:10           0        4.06       0.151
  WS02006240           JUNCTION      0.00   229.09     0  02:35           0        4.06       0.261
  WS02006242           JUNCTION      0.00   230.55     0  02:31           0        4.06       0.317
  WS02006243           JUNCTION      0.00   231.83     0  02:29           0        4.06       0.180
  WS02006245           JUNCTION      0.00   232.67     0  02:29           0        4.07       0.211
  WS02006247           JUNCTION      0.00   233.37     0  02:28           0        4.07       0.161
  WS02006248           JUNCTION      0.00   233.86     0  02:28           0        4.08       0.107
  WS02006249           JUNCTION      0.00   234.52     0  02:27           0        4.09       0.237
  WS02006239           JUNCTION      0.00   228.73     0  02:37           0        4.06       0.179
  WS02006251           JUNCTION      0.08   235.72     0  02:25     0.00217         4.1       0.213
  WS02006252           JUNCTION      0.00   200.00     0  02:23           0        3.96       0.011
  WS02006253           JUNCTION      1.40    39.91     0  02:17     0.00325       0.141       2.649
  WS02006256           JUNCTION      0.00   600.00     0  00:30           0        1.09       0.184
  WS02004138           JUNCTION      0.00   380.00     0  01:20           0        9.58       0.055
  WS02004407           JUNCTION      0.00   388.65     0  02:41           0        5.39       0.113
  WS02006228           JUNCTION      0.00   389.23     0  02:35           0        5.56       0.242
  WS02006229           JUNCTION      0.00   389.25     0  02:34           0        5.57       0.224
  WS02006280           JUNCTION      0.00   205.39     0  02:18           0       0.872       0.008
  WS02006284           JUNCTION      0.10   205.38     0  02:18      0.0027       0.874       0.122
  WS02006287           JUNCTION      0.00   205.26     0  02:18           0       0.872       0.083
  WSF200               JUNCTION      0.00   385.60     0  02:45           0        5.28       0.065
  HS02004901           JUNCTION     11.30    11.30     0  02:10      0.0302      0.0303       6.150
  HS02004881           JUNCTION      4.56    38.85     0  02:17      0.0132       0.138       0.233
  HS02004876           JUNCTION      7.20    34.62     0  02:17      0.0252       0.126       0.420
  HS02004870           JUNCTION      8.01    27.57     0  02:17      0.0249         0.1       0.106
  HS02004862           JUNCTION      6.54    20.11     0  02:18      0.0305      0.0758       0.223
  HS02004856           JUNCTION      5.94    13.62     0  02:17      0.0187      0.0467       3.169
  HS02004852           JUNCTION      0.00     8.08     0  02:17           0       0.028       0.180
  HS02004848           JUNCTION     12.98    12.98     0  02:20      0.0593      0.0593       0.073
  HS02004842           JUNCTION      0.00     5.36     0  02:30           0      0.0443      41.508
  HS02004837           JUNCTION     19.16    23.70     0  02:17       0.222       0.254       0.320
  HS02004830           JUNCTION      0.15    23.84     0  02:17     0.00423       0.244       0.507
  HS02004824           JUNCTION     14.54    38.20     0  02:20      0.0777       0.321       0.168
  HS02004817           JUNCTION      0.60    38.80     0  02:21      0.0169       0.337       5.203
  HS02004807           JUNCTION     15.10    52.50     0  02:19      0.0458       0.366       1.168
  HS02004802           JUNCTION      0.00    52.78     0  02:20           0       0.362       1.135
  HS02004799           JUNCTION     11.60   130.23     0  02:15      0.0371       0.451       0.506
  HS02004792           JUNCTION     51.95   118.91     0  02:15       0.162       0.414       0.099
  HS02004788           JUNCTION     17.39    69.26     0  02:16      0.0986       0.253       0.155
  HS02004785           JUNCTION      0.15    52.31     0  02:15     0.00423       0.156       0.309
  HS02004777           JUNCTION      0.03    52.60     0  02:14    0.000846       0.157       3.415
  HS02004770           JUNCTION     44.04    53.94     0  02:12       0.129       0.158       2.005
  HS02004480           JUNCTION      0.00   153.47     0  02:17           0       0.526       0.138
  HS02004479           JUNCTION      0.00    23.78     0  02:18           0      0.0871       0.844
  HS02004478           JUNCTION      0.00   205.25     0  02:18           0       0.872       0.072
  YS02001745           JUNCTION     71.63    71.63     0  03:00       0.787       0.787       0.103
  YS02001748           JUNCTION      0.04   114.25     0  03:27     0.00127       0.803       0.461
  YS02001751           JUNCTION      0.01   169.64     0  03:26     0.00031       0.799       1.454
  YS02001754           JUNCTION      0.26   112.52     0  03:24     0.00733       0.784       2.414
  YS02001762           JUNCTION      0.00   125.87     0  03:01           0       0.861       2.354
  YS02001765           JUNCTION      0.00   116.67     0  03:03           0       0.861       2.557
  YS02001767           JUNCTION      0.54   154.01     0  03:02      0.0151       0.879       3.838
  YS02001770           JUNCTION     92.41   149.64     0  03:34       0.922       0.998       2.855
  YS02001774           JUNCTION      0.00    91.12     0  03:34           0       0.182      15.152
  YS02001779           JUNCTION      0.01    80.92     0  03:31    0.000141      0.0818      16.153
  YS02001882           JUNCTION      0.00     4.00     0  02:10           0     0.00511      47.816
  YS02001884           JUNCTION      0.00    11.58     0  02:07           0      0.0204      30.917
  YS02001759           JUNCTION     90.50   217.36     0  03:03        0.86        1.69       1.339
  YS02001887           JUNCTION    119.68   119.68     0  02:41        1.03        1.04       0.688
  YS02001890           JUNCTION      0.00   118.99     0  02:44           0        1.02       0.772
  YS02001898           JUNCTION      0.00   118.42     0  02:47           0           1       0.214
  YS02001901           JUNCTION      0.00   118.33     0  02:46           0           1       0.547
  YS02001904           JUNCTION      0.00   117.74     0  02:48           0           1       0.509
  YS02001907           JUNCTION      0.00   213.59     0  02:54           0        2.15       1.034
  YS02001910           JUNCTION      0.00    97.51     0  03:00           0        1.15       0.882
  YS02001915           JUNCTION     64.26    96.85     0  03:01       0.674        1.16       0.389
  YS02001918           JUNCTION      0.00    32.96     0  03:02           0       0.485       0.227
  YS02001619           JUNCTION     62.44    62.44     0  02:56       0.664       0.664       0.760
  YS02001629           JUNCTION      0.00   108.03     0  03:03           0       0.618       2.666
  YS02001641           JUNCTION      0.00   159.48     0  03:00           0        1.31       1.512
  YS02001644           JUNCTION     68.04   217.85     0  03:04       0.755        2.04       1.178
  YS02001652           JUNCTION      0.00   127.38     0  02:59           0       0.741       2.489
  YS02001655           JUNCTION      0.15   152.13     0  02:55     0.00434       0.758       1.719
  YS02001920           JUNCTION      2.87    32.98     0  03:02      0.0809       0.487       0.414
  YS02001923           JUNCTION      0.04    30.12     0  03:01     0.00106       0.406       0.073
  YS02001926           JUNCTION      0.05    30.14     0  03:01     0.00147       0.407       0.518
  YS02001929           JUNCTION     30.10    30.10     0  03:01       0.406       0.406       0.070
  YS02001658           JUNCTION      0.00    84.67     0  02:44           0       0.758       0.521
  YS02001661           JUNCTION      0.00    84.67     0  02:44           0       0.752       0.087
  YS02001664           JUNCTION     84.67    84.67     0  02:44       0.753       0.753       0.022
  YS02001622           JUNCTION      0.00    90.14     0  02:57           0       0.659       2.287
  YS02001633           JUNCTION     69.18   152.85     0  02:48       0.777        1.36       2.142
  YS02001649           JUNCTION      0.00   315.39     0  02:55           0         2.7       1.316
  YS02001757           JUNCTION      0.00   532.13     0  03:04           0        5.06       1.837
  YS02001895           JUNCTION      0.00   118.52     0  02:44           0        1.01       0.367
  YS02001625           JUNCTION      0.00    93.41     0  03:01           0       0.645       4.870
  YS02163301           JUNCTION      0.00    92.61     0  03:00           0       0.611       3.536
  YS02163601           JUNCTION      0.11   161.26     0  03:03      0.0031        1.33       2.221
  YS02164001           JUNCTION      0.00   162.19     0  03:03           0        1.31       1.392
  YS02001647           JUNCTION      0.00   214.81     0  03:03           0           2       1.161
  YSB1154              JUNCTION     12.81    12.81     0  02:14      0.0449      0.0463       3.220
  YSB6556              JUNCTION      0.00    12.76     0  02:16           0      0.0473       2.706
  YSB1174              JUNCTION     12.89    12.89     0  02:09      0.0327      0.0338       3.948
  YSB1171              JUNCTION      0.00    23.72     0  02:15           0      0.0866       7.872
  YS02006553           JUNCTION      0.00   213.65     0  02:56           0        2.14       0.671
  YS02006561           JUNCTION      0.00   313.59     0  02:53           0        3.02       0.020
  YS02006556           JUNCTION      0.00   213.74     0  02:56           0        2.14       0.484
  YS02006558           JUNCTION    101.08   313.61     0  02:53       0.938        3.05       0.148
  YS02001783           JUNCTION      0.00   313.59     0  02:53           0        3.02       0.239
  YS02001784           JUNCTION      1.06   375.06     0  02:41      0.0299        3.04       0.349
  YS02001786           JUNCTION      0.06   369.38     0  02:42     0.00159        3.03       0.448
  YS02001788           JUNCTION      0.07   396.36     0  02:43       0.002        3.02       0.459
  YS02001790           JUNCTION      0.15   370.07     0  02:43     0.00437        3.01       0.561
  YS02001791           JUNCTION      0.00   370.05     0  02:43           0           3       0.475
  YS02001793           JUNCTION      0.00   370.29     0  02:43           0        2.99       0.560
  WS02004139           JUNCTION      0.32   380.37     0  01:20     0.00905        9.58       0.449
  WSC                  OUTFALL       0.00   789.59     0  02:48           0        15.3       0.000
  3                    OUTFALL       0.00   446.15     0  00:30           0       0.643       0.000
  4                    OUTFALL       0.00     0.00     0  00:00           0           0       0.000 ltr
  5                    OUTFALL       0.00     0.00     0  00:00           0           0       0.000 ltr
  JK-storage           STORAGE       0.00   526.69     0  03:56           0        3.12       0.514
  CC-storage           STORAGE       0.00   526.39     0  03:03           0        4.97       0.420
  XR-storage           STORAGE     316.43   316.43     0  02:51        6.96        7.56     -21.055
  
  
  **********************
  Node Surcharge Summary
  **********************
  
  Surcharging occurs when water rises above the top of the highest conduit.
  ---------------------------------------------------------------------
                                               Max. Height   Min. Depth
                                   Hours       Above Crown    Below Rim
  Node                 Type      Surcharged         Meters       Meters
  ---------------------------------------------------------------------
  YS02001762           JUNCTION        4.68          0.188        0.962
  YS02001765           JUNCTION        3.45          0.146        0.954
  YS02001767           JUNCTION        2.54          0.133        0.897
  YS02001770           JUNCTION        1.53          0.031        0.889
  YS02001774           JUNCTION        4.34          0.128        0.922
  YS02001759           JUNCTION        5.11          0.205        1.005
  YS02001641           JUNCTION        3.92          0.160        0.940
  YS02001644           JUNCTION        4.07          0.145        0.775
  YS02001633           JUNCTION        2.86          0.139        0.921
  YS02001649           JUNCTION        4.81          0.162        0.888
  YS02001757           JUNCTION        5.30          0.294        0.916
  YS02163301           JUNCTION        1.82          0.089        0.941
  YS02163601           JUNCTION        4.74          0.211        0.869
  YS02164001           JUNCTION        3.26          0.150        0.950
  YS02001790           JUNCTION        4.28          1.157        0.000
  YS02001791           JUNCTION        4.45          1.847        0.073
  YS02001793           JUNCTION        4.72          1.242        1.358
  
  
  *********************
  Node Flooding Summary
  *********************
  
  Flooding refers to all water that overflows a node, whether it ponds or not.
  --------------------------------------------------------------------------
                                                             Total   Maximum
                                 Maximum   Time of Max       Flood    Ponded
                        Hours       Rate    Occurrence      Volume     Depth
  Node                 Flooded       LPS   days hr:min    10^6 ltr    Meters
  --------------------------------------------------------------------------
  YS02001790              0.01    119.25      0  04:22       0.000     0.000
  JK-storage              4.04    370.26      0  02:43       1.721     0.000
  
  
  **********************
  Storage Volume Summary
  **********************
  
  --------------------------------------------------------------------------------------------------
                         Average     Avg  Evap Exfil       Maximum     Max    Time of Max    Maximum
                          Volume    Pcnt  Pcnt  Pcnt        Volume    Pcnt     Occurrence    Outflow
  Storage Unit           1000 m3    Full  Loss  Loss       1000 m3    Full    days hr:min        LPS
  --------------------------------------------------------------------------------------------------
  JK-storage               0.257      88     0     0         0.291     100       0  02:40     600.00
  CC-storage               1.037       7     0     0         1.490       9       0  05:15     200.00
  XR-storage               0.063       7     0     0         0.612      66       0  00:21     380.00
  
  
  ***********************
  Outfall Loading Summary
  ***********************
  
  -----------------------------------------------------------
                         Flow       Avg       Max       Total
                         Freq      Flow      Flow      Volume
  Outfall Node           Pcnt       LPS       LPS    10^6 ltr
  -----------------------------------------------------------
  WSC                  100.00    613.05    789.59      15.273
  3                     17.02    177.93    446.15       0.643
  4                      0.00      0.00      0.00       0.000
  5                      0.00      0.00      0.00       0.000
  -----------------------------------------------------------
  System                29.25    790.98    838.35      15.916
  
  
  ********************
  Link Flow Summary
  ********************
  
  -----------------------------------------------------------------------------
                                 Maximum  Time of Max   Maximum    Max/    Max/
                                  |Flow|   Occurrence   |Veloc|    Full    Full
  Link                 Type          LPS  days hr:min     m/sec    Flow   Depth
  -----------------------------------------------------------------------------
  WS02003066WSF200     CONDUIT    385.60     0  02:45      2.67    0.07    0.19
  WS02006287WS02006284 CONDUIT    205.29     0  02:18      1.62    0.10    0.22
  WS02006284WS02006280 CONDUIT    205.39     0  02:18      1.86    0.09    0.20
  WS02006280WS02006229 CONDUIT    205.39     0  02:18      2.99    0.04    0.14
  WS02006229WS02006228 CONDUIT    389.23     0  02:35      0.78    1.29    0.99
  WS02006256WS02006235 CONDUIT    158.12     0  00:23      2.30    1.67    1.00
  WS02006253WS02006251 CONDUIT     40.06     0  02:18      0.49    0.12    0.62
  WS02006252WS02006251 CONDUIT    200.54     0  02:23      1.97    0.74    0.76
  WS02006251WS02006249 CONDUIT    234.52     0  02:27      0.97    0.68    0.62
  WS02006249WS02006248 CONDUIT    233.86     0  02:28      1.06    1.28    0.58
  WS02006248WS02006247 CONDUIT    233.37     0  02:28      1.03    0.51    0.59
  WS02006247WS02006245 CONDUIT    232.67     0  02:29      1.01    1.84    0.61
  WS02006245WS02006243 CONDUIT    231.83     0  02:29      1.11    0.69    0.60
  WS02006243WS02006242 CONDUIT    230.55     0  02:31      0.96    0.49    0.70
  WS02006242WS02006240 CONDUIT    229.09     0  02:35      0.88    0.91    0.77
  WS02006240WS02006239 CONDUIT    228.73     0  02:37      0.99    0.72    0.75
  WS02006239WS02006238 CONDUIT    231.61     0  04:10      0.84    0.74    0.84
  WS02006238WS02006235 CONDUIT    236.71     0  04:10      0.91    0.53    0.87
  WS02006235WS02006234 CONDUIT    312.69     0  03:31      0.94    3.30    0.81
  WS02006234WS02006232 CONDUIT    312.77     0  03:31      1.02    0.63    0.87
  WS02006232WS02006231 CONDUIT    312.85     0  03:31      0.94    0.66    0.82
  WS02006231WS02006230 CONDUIT    313.01     0  03:32      1.28    4.75    0.64
  WS02006230WS02006229 CONDUIT    323.63     0  03:32      0.84    7.20    1.00
  WS02006228WS02006109 CONDUIT    389.14     0  02:34      0.78    1.70    1.00
  WS02006116WS02004401 CONDUIT    389.86     0  02:38      0.77    0.54    0.72
  WS02006115WS02006116 CONDUIT    390.95     0  02:38      0.81    0.50    0.64
  WS02006113WS02006111 CONDUIT    398.15     0  02:35      2.20    0.48    0.39
  WS02006112WS02006115 CONDUIT    392.94     0  02:36      0.63    0.23    0.76
  WS02006111WS02006112 CONDUIT    390.89     0  02:36      1.29    0.19    0.65
  WS02006110WS02006113 CONDUIT    390.36     0  02:35      0.98    0.36    0.74
  WS02006109WS02006110 CONDUIT    390.35     0  02:35      0.80    0.75    0.93
  WS02004411WS02004412 CONDUIT    385.99     0  02:43      0.79    0.55    0.60
  WS02004401WS02004402 CONDUIT    389.20     0  02:39      0.80    0.47    0.75
  WS02004413WS02003067 CONDUIT    385.60     0  02:44      0.93    0.17    0.52
  WS02004412WS02004413 CONDUIT    385.70     0  02:44      0.67    0.26    0.69
  WS02004410WS02004411 CONDUIT    386.53     0  02:42      0.82    0.53    0.58
  WS02004409WS02004410 CONDUIT    387.43     0  02:42      0.86    0.50    0.56
  WS02004407WS02004409 CONDUIT    388.62     0  02:41      1.34    0.14    0.40
  WS02004406WS02004407 CONDUIT    388.65     0  02:41      0.86    0.17    0.56
  WS02004405WS02004406 CONDUIT    388.70     0  02:40      0.62    0.77    0.86
  WS02004404WS02004405 CONDUIT    388.73     0  02:40      0.88    3.81    0.86
  WS02004403WS02004404 CONDUIT    388.65     0  02:40      0.75    0.28    0.83
  WS02004402WS02004403 CONDUIT    388.83     0  02:39      0.79    0.56    0.78
  WS02004139WS02001211 CONDUIT    380.84     0  04:23      0.69    0.48    0.59
  WS02004138WS02004139 CONDUIT    380.05     0  01:20      2.95    0.08    0.43
  WS02003067WS02003066 CONDUIT    385.61     0  02:44      1.00    0.12    0.37
  WS02001213WS02003059 CONDUIT    390.45     0  04:22      0.68    0.64    0.74
  WS02001212WS02001213 CONDUIT    389.40     0  04:22      1.32    0.60    0.45
  WS02001211WS02001212 CONDUIT    388.79     0  04:23      0.78    0.30    0.63
  WS02003072WS02003073 CONDUIT    787.76     0  02:48      1.62    1.70    0.44
  WS02003069WS02003072 CONDUIT    787.76     0  02:47      1.53    0.38    0.46
  WS02003060WS02003069 CONDUIT    787.47     0  02:46      1.79    0.31    0.41
  WS02003059WS02003060 CONDUIT    391.93     0  04:22      0.95    0.26    0.62
  HS02004901HS02004770 CONDUIT     10.31     0  02:14      0.05    0.04    0.32
  HS02004876HS02004881 CONDUIT     34.69     0  02:18      0.56    0.37    0.09
  HS02004870HS02004876 CONDUIT     27.55     0  02:18      0.39    0.02    0.10
  HS02004842HS02004848 CONDUIT      5.36     0  02:30      0.03    0.00    0.27
  HS02004837HS02004842 CONDUIT      5.55     0  02:30      0.42    0.00    0.29
  HS02004830HS02004837 CONDUIT     23.69     0  02:17      0.44    0.02    0.08
  HS02004824HS02004830 CONDUIT     23.84     0  02:18      0.48    0.03    0.07
  HS02004817HS02004824 CONDUIT     38.20     0  02:21      0.17    0.02    0.40
  HS02004770HS02004777 CONDUIT     52.57     0  02:14      0.23    0.10    0.33
  HS02004799HS02004480 CONDUIT    130.03     0  02:16      0.59    0.16    0.31
  HS02004792HS02004799 CONDUIT    118.85     0  02:15      0.68    0.07    0.25
  HS02004788HS02004792 CONDUIT     69.19     0  02:17      0.83    0.05    0.12
  HS02004785HS02004788 CONDUIT     52.21     0  02:16      0.51    0.39    0.15
  HS02004777HS02004785 CONDUIT     52.16     0  02:15      0.27    0.06    0.27
  HS02004480HS02004478 CONDUIT    153.46     0  02:17      0.96    0.65    0.23
  HS02004479HS02004480 CONDUIT     24.00     0  02:19      0.15    0.02    0.31
  HS02004862HS02004870 CONDUIT     20.07     0  02:19      0.47    0.02    0.06
  HS02004848HS02004852 CONDUIT      8.08     0  02:17      0.31    0.01    0.04
  HS02004856HS02004862 CONDUIT     13.59     0  02:18      0.34    0.01    0.06
  HS02004852HS02004856 CONDUIT      8.04     0  02:19      0.12    0.01    0.09
  HS02004802HS02004478 CONDUIT     53.18     0  02:21      0.30    0.05    0.26
  HS02004478WS02006287 CONDUIT    205.26     0  02:18      1.32    0.06    0.17
  HS02004817HS02004807 CONDUIT     39.35     0  02:22      0.11    0.02    0.51
  HS02004807HS02004802 CONDUIT     52.78     0  02:20      0.25    0.10    0.30
  YS02001759YS02001757 CONDUIT    222.87     0  03:03      0.28    0.16    1.00
  YS02001762YS02001759 CONDUIT    131.81     0  03:07      0.18    0.15    1.00
  YS02001765YS02001762 CONDUIT    125.87     0  03:01      0.23    0.12    1.00
  YS02001770YS02001767 CONDUIT    153.47     0  03:02      0.32    0.61    1.00
  YS02001774YS02001770 CONDUIT     91.12     0  03:34      0.15    0.06    1.00
  YS02001779YS02001774 CONDUIT     80.91     0  03:31      0.11    0.04    0.93
  YS02001649YS02001757 CONDUIT    319.32     0  02:55      0.41    0.19    1.00
  YS02001767YS02001765 CONDUIT    116.67     0  03:03      0.26    0.15    1.00
  YS02006561YS02001783 CONDUIT    313.59     0  02:53      1.77    0.16    0.54
  YS02001783YS02001784 CONDUIT    374.00     0  02:41      1.22    0.52    0.82
  YS02001784YS02001785 CONDUIT    369.33     0  02:42      1.29    0.86    0.89
  YS02001788YS02001790 CONDUIT    369.92     0  02:43      1.84    0.27    0.96
  YS02001790YS02001791 CONDUIT    370.05     0  02:43      2.17    0.40    1.00
  YS02001791YS02001793 CONDUIT    370.29     0  02:43      4.23    0.16    1.00
  YS02001910YS02001907 CONDUIT     97.66     0  03:01      0.50    0.06    0.74
  YS02001786YS02001788 CONDUIT    396.29     0  02:43      1.74    0.76    0.89
  YS02001915YS02001910 CONDUIT     97.51     0  03:00      0.44    0.05    0.53
  YS02001918YS02001915 CONDUIT     32.95     0  03:03      0.44    0.02    0.26
  YS02001923YS02001920 CONDUIT     30.11     0  03:02      0.45    0.01    0.14
  YS02001926YS02001923 CONDUIT     30.08     0  03:01      0.49    0.04    0.13
  YS02001929YS02001926 CONDUIT     30.08     0  03:01      0.52    0.01    0.13
  YS02001920YS02001918 CONDUIT     32.96     0  03:02      0.46    0.03    0.15
  YS02001629YS02163301 CONDUIT     92.61     0  03:00      0.12    0.11    1.00
  YS02001619YS02001622 CONDUIT     90.14     0  02:57      0.66    0.13    0.64
  YS02001622YS02001625 CONDUIT     93.41     0  03:01      0.25    0.05    0.80
  YS02001625YS02001629 CONDUIT    108.03     0  03:03      0.25    0.05    0.79
  YS02163301YS02001633 CONDUIT     84.70     0  02:48      0.11    0.08    1.00
  YS02163601YS02164001 CONDUIT    162.19     0  03:03      0.21    0.14    1.00
  YS02164001YS02001641 CONDUIT    159.48     0  03:00      0.20    0.22    1.00
  YS02001641YS02001644 CONDUIT    151.66     0  03:04      0.19    0.49    1.00
  YS02001647YS02001649 CONDUIT    236.43     0  03:03      0.31    0.12    0.97
  YS02006553YS02006556 CONDUIT    213.74     0  02:56      0.31    0.18    0.82
  YS02006556YS02006558 CONDUIT    213.75     0  02:56      0.30    0.17    0.85
  YSB6556YSB1171       CONDUIT     12.95     0  02:19      0.06    0.01    0.57
  YS02001907YS02006553 CONDUIT    213.65     0  02:56      0.26    0.25    0.93
  YS02006558YS02006561 CONDUIT    313.59     0  02:53      2.29    0.69    0.49
  YS02001633YS02163601 CONDUIT    161.15     0  03:03      0.21    0.17    1.00
  YS02001644YS02001647 CONDUIT    214.81     0  03:03      0.29    0.13    0.97
  YS02001745YS02001748 CONDUIT     71.63     0  03:00      1.40    0.03    0.24
  YS02001748YS02001751 CONDUIT    169.63     0  03:26      1.09    0.09    0.57
  YS02001751YS02001754 CONDUIT     94.31     0  03:02      0.97    0.05    0.79
  YS02001754YS02001757 CONDUIT    142.64     0  03:24      0.33    0.06    0.98
  YS02001882YS02001884 CONDUIT      4.00     0  02:10      0.06    0.00    0.46
  YS02001884YS02001887 CONDUIT     11.58     0  02:07      0.06    0.02    0.56
  YS02001890YS02001895 CONDUIT    118.52     0  02:44      0.29    0.06    0.53
  YS02001895YS02001898 CONDUIT    118.42     0  02:47      0.49    0.21    0.39
  YS02001898YS02001901 CONDUIT    118.33     0  02:46      0.33    0.08    0.47
  YS02001901YS02001904 CONDUIT    117.74     0  02:48      0.29    0.18    0.52
  YS02001904YS02001907 CONDUIT    117.95     0  02:48      0.21    0.04    0.68
  YS02001887YS02001890 CONDUIT    118.99     0  02:44      0.24    0.20    0.61
  YS02001652YS02001649 CONDUIT    150.72     0  02:55      0.33    0.07    0.98
  YS02001655YS02001652 CONDUIT    127.38     0  02:59      1.05    0.06    0.82
  YS02001658YS02001655 CONDUIT    151.97     0  02:55      1.26    0.06    0.55
  YS02001661YS02001658 CONDUIT     84.67     0  02:44      1.45    0.03    0.24
  YS02001664YS02001661 CONDUIT     84.67     0  02:44      1.11    0.03    0.15
  YSB1154YSB6556       CONDUIT     12.76     0  02:16      0.19    0.02    0.46
  YSB1174YSB1171       CONDUIT     11.90     0  02:11      0.06    0.02    0.58
  YSB1171HS02004479    CONDUIT     23.78     0  02:18      0.54    0.02    0.45
  HS02004881HS02006253 CONDUIT     38.84     0  02:17      1.66    0.01    0.10
  YS02001793JiankangQianchi CONDUIT    526.69     0  03:56      2.42    0.04    1.00
  YS02001757CaochengTiaoxuchi CONDUIT    526.39     0  03:03      1.13    0.23    0.77
  WSF200WS02003060     CONDUIT    385.63     0  02:44      1.51    0.09    0.29
  1                    CONDUIT    789.59     0  02:48      3.12    0.27    0.36
  2                    CONDUIT      0.00     0  00:00      0.00    0.00    0.00
  3                    CONDUIT    446.15     0  00:30      9.55    0.71    0.63
  4                    CONDUIT      0.00     0  00:00      0.00    0.00    0.00
  CC-Pump-1            PUMP         0.00     0  00:00              0.00
  CC-Pump-2            PUMP       200.00     0  02:23              1.00
  JK-Pump-1            PUMP       300.00     0  00:30              1.00
  JK-Pump-2            PUMP       300.00     0  00:30              1.00
  XR-Pump-1            PUMP        95.00     0  00:30              1.00
  XR-Pump-2            PUMP        95.00     0  00:00              1.00
  XR-Pump-3            PUMP        95.00     0  00:00              1.00
  XR-Pump-4            PUMP        95.00     0  00:30              1.00
  
  
  ***************************
  Flow Classification Summary
  ***************************
  
  -------------------------------------------------------------------------------------
                      Adjusted    ---------- Fraction of Time in Flow Class ---------- 
                       /Actual         Up    Down  Sub   Sup   Up    Down  Norm  Inlet 
  Conduit               Length    Dry  Dry   Dry   Crit  Crit  Crit  Crit  Ltd   Ctrl  
  -------------------------------------------------------------------------------------
  WS02003066WSF200        1.00   0.05  0.02  0.00  0.00  0.94  0.00  0.00  0.75  0.00
  WS02006287WS02006284    1.00   0.04  0.02  0.00  0.71  0.23  0.00  0.00  0.77  0.00
  WS02006284WS02006280    1.00   0.04  0.00  0.00  0.00  0.00  0.00  0.96  0.00  0.00
  WS02006280WS02006229    1.00   0.04  0.00  0.00  0.00  0.00  0.00  0.96  0.00  0.00
  WS02006229WS02006228    1.00   0.00  0.00  0.00  1.00  0.00  0.00  0.00  0.00  0.00
  WS02006256WS02006235    1.00   0.01  0.00  0.00  0.99  0.00  0.00  0.00  0.00  0.00
  WS02006253WS02006251    1.00   0.01  0.03  0.00  0.96  0.00  0.00  0.00  0.00  0.00
  WS02006252WS02006251    1.00   0.08  0.00  0.00  0.00  0.00  0.92  0.00  0.00  0.00
  WS02006251WS02006249    1.00   0.00  0.00  0.00  1.00  0.00  0.00  0.00  0.27  0.00
  WS02006249WS02006248    1.00   0.00  0.00  0.00  0.92  0.00  0.08  0.00  0.00  0.00
  WS02006248WS02006247    1.00   0.00  0.00  0.00  0.97  0.00  0.00  0.03  0.17  0.00
  WS02006247WS02006245    1.00   0.00  0.00  0.00  0.97  0.00  0.00  0.02  0.00  0.00
  WS02006245WS02006243    1.00   0.01  0.00  0.00  0.94  0.00  0.00  0.05  0.01  0.00
  WS02006243WS02006242    1.00   0.01  0.00  0.00  0.99  0.00  0.00  0.00  0.23  0.00
  WS02006242WS02006240    1.00   0.01  0.00  0.00  0.99  0.00  0.00  0.00  0.00  0.00
  WS02006240WS02006239    1.00   0.01  0.00  0.00  0.95  0.00  0.00  0.04  0.01  0.00
  WS02006239WS02006238    1.00   0.01  0.00  0.00  0.99  0.00  0.00  0.00  0.10  0.00
  WS02006238WS02006235    1.00   0.01  0.00  0.00  0.99  0.00  0.00  0.00  0.00  0.00
  WS02006235WS02006234    1.00   0.01  0.00  0.00  0.95  0.00  0.04  0.00  0.00  0.00
  WS02006234WS02006232    1.00   0.01  0.00  0.00  0.99  0.00  0.00  0.00  0.07  0.00
  WS02006232WS02006231    1.00   0.01  0.00  0.00  0.99  0.00  0.00  0.00  0.00  0.00
  WS02006231WS02006230    1.00   0.01  0.00  0.00  0.30  0.00  0.70  0.00  0.00  0.00
  WS02006230WS02006229    1.00   0.00  0.00  0.00  0.99  0.00  0.00  0.01  0.00  0.00
  WS02006228WS02006109    1.00   0.00  0.00  0.00  1.00  0.00  0.00  0.00  0.00  0.00
  WS02006116WS02004401    1.00   0.03  0.00  0.00  0.97  0.00  0.00  0.00  0.00  0.00
  WS02006115WS02006116    1.00   0.03  0.00  0.00  0.97  0.00  0.00  0.00  0.00  0.00
  WS02006113WS02006111    1.00   0.02  0.00  0.00  0.00  0.98  0.00  0.00  0.13  0.00
  WS02006112WS02006115    1.00   0.02  0.01  0.00  0.97  0.00  0.00  0.00  0.00  0.00
  WS02006111WS02006112    1.00   0.02  0.00  0.00  0.97  0.00  0.00  0.01  0.94  0.00
  WS02006110WS02006113    1.00   0.00  0.02  0.00  0.98  0.00  0.00  0.00  0.00  0.00
  WS02006109WS02006110    1.00   0.00  0.00  0.00  1.00  0.00  0.00  0.00  0.00  0.00
  WS02004411WS02004412    1.00   0.04  0.00  0.00  0.96  0.00  0.00  0.00  0.00  0.00
  WS02004401WS02004402    1.00   0.03  0.00  0.00  0.97  0.00  0.00  0.00  0.00  0.00
  WS02004413WS02003067    1.00   0.04  0.01  0.00  0.00  0.00  0.94  0.00  0.00  0.00
  WS02004412WS02004413    1.00   0.04  0.00  0.00  0.96  0.00  0.00  0.00  0.03  0.00
  WS02004410WS02004411    1.00   0.04  0.00  0.00  0.96  0.00  0.00  0.00  0.03  0.00
  WS02004409WS02004410    1.00   0.04  0.00  0.00  0.96  0.00  0.00  0.00  0.03  0.00
  WS02004407WS02004409    1.00   0.04  0.00  0.00  0.96  0.00  0.00  0.00  0.86  0.00
  WS02004406WS02004407    1.00   0.00  0.04  0.00  0.96  0.00  0.00  0.00  0.00  0.00
  WS02004405WS02004406    1.00   0.00  0.00  0.00  1.00  0.00  0.00  0.00  0.04  0.00
  WS02004404WS02004405    1.00   0.00  0.00  0.00  1.00  0.00  0.00  0.00  0.00  0.00
  WS02004403WS02004404    1.00   0.00  0.03  0.00  0.97  0.00  0.00  0.00  0.01  0.00
  WS02004402WS02004403    1.00   0.03  0.00  0.00  0.97  0.00  0.00  0.00  0.00  0.00
  WS02004139WS02001211    1.00   0.00  0.00  0.00  1.00  0.00  0.00  0.00  0.00  0.00
  WS02004138WS02004139    1.00   0.00  0.00  0.00  1.00  0.00  0.00  0.00  1.00  0.00
  WS02003067WS02003066    1.00   0.06  0.00  0.00  0.94  0.00  0.00  0.00  0.00  0.00
  WS02001213WS02003059    1.00   0.00  0.00  0.00  1.00  0.00  0.00  0.00  0.00  0.00
  WS02001212WS02001213    1.00   0.00  0.00  0.00  0.93  0.00  0.07  0.00  0.00  0.00
  WS02001211WS02001212    1.00   0.00  0.00  0.00  1.00  0.00  0.00  0.00  0.00  0.00
  WS02003072WS02003073    1.00   0.00  0.00  0.00  0.00  0.00  0.00  1.00  0.00  0.00
  WS02003069WS02003072    1.00   0.00  0.00  0.00  1.00  0.00  0.00  0.00  0.15  0.00
  WS02003060WS02003069    1.00   0.00  0.00  0.00  1.00  0.00  0.00  0.00  0.02  0.00
  WS02003059WS02003060    1.00   0.00  0.00  0.00  1.00  0.00  0.00  0.00  0.01  0.00
  HS02004901HS02004770    1.00   0.04  0.00  0.00  0.96  0.00  0.00  0.00  0.02  0.00
  HS02004876HS02004881    1.00   0.00  0.00  0.00  1.00  0.00  0.00  0.00  0.00  0.00
  HS02004870HS02004876    1.00   0.00  0.00  0.00  1.00  0.00  0.00  0.00  0.95  0.00
  HS02004842HS02004848    1.00   0.00  0.04  0.00  0.96  0.00  0.00  0.00  0.69  0.00
  HS02004837HS02004842    1.00   0.00  0.00  0.00  1.00  0.00  0.00  0.00  0.11  0.00
  HS02004830HS02004837    1.00   0.00  0.00  0.00  1.00  0.00  0.00  0.00  0.99  0.00
  HS02004824HS02004830    1.00   0.00  0.00  0.00  1.00  0.00  0.00  0.00  0.00  0.00
  HS02004817HS02004824    1.00   0.00  0.00  0.00  1.00  0.00  0.00  0.00  1.00  0.00
  HS02004770HS02004777    1.00   0.00  0.04  0.00  0.96  0.00  0.00  0.00  0.07  0.00
  HS02004799HS02004480    1.00   0.00  0.01  0.00  0.94  0.00  0.05  0.00  0.00  0.00
  HS02004792HS02004799    1.00   0.00  0.00  0.00  1.00  0.00  0.00  0.00  0.98  0.00
  HS02004788HS02004792    1.00   0.00  0.00  0.00  1.00  0.00  0.00  0.00  0.98  0.00
  HS02004785HS02004788    1.00   0.00  0.00  0.00  1.00  0.00  0.00  0.00  0.00  0.00
  HS02004777HS02004785    1.00   0.00  0.00  0.00  1.00  0.00  0.00  0.00  0.21  0.00
  HS02004480HS02004478    1.00   0.05  0.00  0.00  0.75  0.00  0.00  0.20  0.00  0.00
  HS02004479HS02004480    1.00   0.01  0.00  0.00  0.99  0.00  0.00  0.00  0.16  0.00
  HS02004862HS02004870    1.00   0.00  0.00  0.00  1.00  0.00  0.00  0.00  0.06  0.00
  HS02004848HS02004852    1.00   0.04  0.00  0.00  0.96  0.00  0.00  0.00  0.71  0.00
  HS02004856HS02004862    1.00   0.00  0.07  0.00  0.93  0.00  0.00  0.00  0.74  0.00
  HS02004852HS02004856    1.00   0.04  0.01  0.00  0.95  0.00  0.00  0.00  0.83  0.00
  HS02004802HS02004478    1.00   0.04  0.01  0.00  0.95  0.00  0.00  0.00  0.01  0.00
  HS02004478WS02006287    1.00   0.05  0.00  0.00  0.89  0.06  0.00  0.00  0.77  0.00
  HS02004817HS02004807    1.00   0.00  0.04  0.00  0.96  0.00  0.00  0.00  0.00  0.00
  HS02004807HS02004802    1.00   0.04  0.00  0.00  0.95  0.00  0.00  0.00  0.01  0.00
  YS02001759YS02001757    1.00   0.00  0.00  0.00  1.00  0.00  0.00  0.00  0.17  0.00
  YS02001762YS02001759    1.00   0.00  0.00  0.00  1.00  0.00  0.00  0.00  0.04  0.00
  YS02001765YS02001762    1.00   0.00  0.00  0.00  1.00  0.00  0.00  0.00  0.22  0.00
  YS02001770YS02001767    1.00   0.00  0.00  0.00  1.00  0.00  0.00  0.00  0.00  0.00
  YS02001774YS02001770    1.00   0.00  0.05  0.00  0.95  0.00  0.00  0.00  0.07  0.00
  YS02001779YS02001774    1.00   0.00  0.00  0.00  1.00  0.00  0.00  0.00  0.26  0.00
  YS02001649YS02001757    1.00   0.00  0.00  0.00  1.00  0.00  0.00  0.00  0.19  0.00
  YS02001767YS02001765    1.00   0.00  0.00  0.00  1.00  0.00  0.00  0.00  0.01  0.00
  YS02006561YS02001783    1.00   0.07  0.00  0.00  0.71  0.22  0.00  0.00  0.73  0.00
  YS02001783YS02001784    1.00   0.00  0.07  0.00  0.93  0.00  0.00  0.00  0.00  0.00
  YS02001784YS02001785    1.00   0.00  0.00  0.00  1.00  0.00  0.00  0.00  0.25  0.00
  YS02001788YS02001790    1.00   0.00  0.00  0.00  0.84  0.16  0.00  0.00  0.34  0.00
  YS02001790YS02001791    1.00   0.00  0.00  0.00  0.80  0.20  0.00  0.00  0.11  0.00
  YS02001791YS02001793    1.00   0.00  0.00  0.00  0.83  0.17  0.00  0.00  0.03  0.00
  YS02001910YS02001907    1.00   0.00  0.00  0.00  0.99  0.00  0.00  0.00  0.13  0.00
  YS02001786YS02001788    1.00   0.00  0.00  0.00  0.81  0.19  0.00  0.00  0.00  0.00
  YS02001915YS02001910    1.00   0.00  0.00  0.00  1.00  0.00  0.00  0.00  0.24  0.00
  YS02001918YS02001915    1.00   0.00  0.00  0.00  1.00  0.00  0.00  0.00  0.82  0.00
  YS02001923YS02001920    1.00   0.00  0.00  0.00  1.00  0.00  0.00  0.00  1.00  0.00
  YS02001926YS02001923    1.00   0.00  0.03  0.00  0.00  0.00  0.97  0.00  0.00  0.00
  YS02001929YS02001926    1.00   0.00  0.04  0.00  0.96  0.00  0.00  0.00  0.87  0.00
  YS02001920YS02001918    1.00   0.00  0.00  0.00  1.00  0.00  0.00  0.00  0.00  0.00
  YS02001629YS02163301    1.00   0.06  0.00  0.00  0.94  0.00  0.00  0.00  0.00  0.00
  YS02001619YS02001622    1.00   0.04  0.00  0.00  0.96  0.00  0.00  0.00  0.00  0.00
  YS02001622YS02001625    1.00   0.04  0.00  0.00  0.96  0.00  0.00  0.00  0.13  0.00
  YS02001625YS02001629    1.00   0.04  0.03  0.00  0.92  0.00  0.01  0.00  0.00  0.00
  YS02163301YS02001633    1.00   0.00  0.06  0.00  0.94  0.00  0.00  0.00  0.00  0.00
  YS02163601YS02164001    1.00   0.00  0.03  0.00  0.97  0.00  0.00  0.00  0.00  0.00
  YS02164001YS02001641    1.00   0.00  0.03  0.00  0.97  0.00  0.00  0.00  0.07  0.00
  YS02001641YS02001644    1.00   0.00  0.00  0.00  1.00  0.00  0.00  0.00  0.00  0.00
  YS02001647YS02001649    1.00   0.00  0.07  0.00  0.93  0.00  0.00  0.00  0.01  0.00
  YS02006553YS02006556    1.00   0.00  0.00  0.00  1.00  0.00  0.00  0.00  0.03  0.00
  YS02006556YS02006558    1.00   0.00  0.00  0.00  1.00  0.00  0.00  0.00  0.00  0.00
  YSB6556YSB1171          1.00   0.01  0.03  0.00  0.96  0.00  0.00  0.00  0.00  0.00
  YS02001907YS02006553    1.00   0.00  0.00  0.00  1.00  0.00  0.00  0.00  0.00  0.00
  YS02006558YS02006561    1.00   0.07  0.00  0.00  0.00  0.93  0.00  0.00  0.73  0.00
  YS02001633YS02163601    1.00   0.00  0.00  0.00  1.00  0.00  0.00  0.00  0.20  0.00
  YS02001644YS02001647    1.00   0.00  0.07  0.00  0.93  0.00  0.00  0.00  0.00  0.00
  YS02001745YS02001748    1.00   0.00  0.00  0.00  0.87  0.02  0.00  0.12  0.67  0.00
  YS02001748YS02001751    1.00   0.00  0.00  0.00  0.98  0.02  0.00  0.00  0.24  0.00
  YS02001751YS02001754    1.00   0.00  0.00  0.00  0.93  0.00  0.00  0.07  0.02  0.00
  YS02001754YS02001757    1.00   0.00  0.00  0.00  1.00  0.00  0.00  0.00  0.26  0.00
  YS02001882YS02001884    1.00   0.06  0.00  0.00  0.94  0.00  0.00  0.00  0.00  0.00
  YS02001884YS02001887    1.00   0.02  0.01  0.00  0.96  0.00  0.00  0.00  0.00  0.00
  YS02001890YS02001895    1.00   0.00  0.06  0.00  0.94  0.00  0.00  0.00  0.00  0.00
  YS02001895YS02001898    1.00   0.06  0.00  0.00  0.93  0.00  0.01  0.00  0.00  0.00
  YS02001898YS02001901    1.00   0.06  0.00  0.00  0.94  0.00  0.00  0.00  0.02  0.00
  YS02001901YS02001904    1.00   0.06  0.00  0.00  0.94  0.00  0.00  0.00  0.00  0.00
  YS02001904YS02001907    1.00   0.00  0.06  0.00  0.94  0.00  0.00  0.00  0.00  0.00
  YS02001887YS02001890    1.00   0.00  0.00  0.00  0.99  0.00  0.01  0.00  0.00  0.00
  YS02001652YS02001649    1.00   0.00  0.00  0.00  1.00  0.00  0.00  0.00  0.26  0.00
  YS02001655YS02001652    1.00   0.00  0.00  0.00  0.93  0.00  0.00  0.07  0.02  0.00
  YS02001658YS02001655    1.00   0.00  0.05  0.00  0.92  0.02  0.00  0.00  0.11  0.00
  YS02001661YS02001658    1.00   0.05  0.00  0.00  0.86  0.08  0.00  0.00  0.66  0.00
  YS02001664YS02001661    1.00   0.04  0.00  0.00  0.78  0.18  0.00  0.00  0.86  0.00
  YSB1154YSB6556          1.00   0.04  0.00  0.00  0.96  0.00  0.00  0.00  0.02  0.00
  YSB1174YSB1171          1.00   0.01  0.02  0.00  0.96  0.00  0.00  0.00  0.00  0.00
  YSB1171HS02004479       1.00   0.01  0.00  0.00  0.98  0.00  0.00  0.01  0.13  0.00
  HS02004881HS02006253    1.00   0.01  0.00  0.00  0.91  0.00  0.00  0.08  0.70  0.00
  YS02001793JiankangQianchi    1.00   0.00  0.00  0.00  0.97  0.03  0.00  0.00  0.23  0.00
  YS02001757CaochengTiaoxuchi    1.00   0.00  0.08  0.00  0.92  0.00  0.00  0.00  0.00  0.00
  WSF200WS02003060        1.00   0.00  0.05  0.00  0.90  0.05  0.00  0.00  0.63  0.00
  1                       1.00   0.00  0.00  0.00  0.00  1.00  0.00  0.00  0.19  0.00
  2                       1.00   1.00  0.00  0.00  0.00  0.00  0.00  0.00  0.00  0.00
  3                       1.00   0.83  0.00  0.00  0.00  0.17  0.00  0.00  0.00  0.00
  4                       1.00   1.00  0.00  0.00  0.00  0.00  0.00  0.00  0.00  0.00
  
  
  *************************
  Conduit Surcharge Summary
  *************************
  
  ----------------------------------------------------------------------------
                                                           Hours        Hours 
                         --------- Hours Full --------   Above Full   Capacity
  Conduit                Both Ends  Upstream  Dnstream   Normal Flow   Limited
  ----------------------------------------------------------------------------
  WS02006229WS02006228        0.01      0.01      0.01      1.67         0.01
  WS02006256WS02006235        5.51      5.51      6.63      1.02         0.01
  WS02006249WS02006248        0.01      0.01      0.01      5.46         0.01
  WS02006247WS02006245        0.01      0.01      0.01      5.47         0.01
  WS02006235WS02006234        0.01      0.01      0.01      5.52         0.01
  WS02006231WS02006230        0.01      0.01      0.01      5.52         0.01
  WS02006230WS02006229        0.72      1.38      0.72      5.64         0.72
  WS02006228WS02006109        0.01      0.19      0.01      2.23         0.01
  WS02006111WS02006112        0.01      0.01      1.75      0.01         0.01
  WS02006110WS02006113        0.01      0.01      0.09      0.01         0.01
  WS02006109WS02006110        0.01      0.01      0.19      0.01         0.01
  WS02004404WS02004405        0.01      0.01      0.01      5.61         0.01
  WS02003072WS02003073        0.01      0.01      0.01      5.52         0.01
  YS02001759YS02001757        5.11      5.11      5.30      0.01         0.01
  YS02001762YS02001759        4.68      4.68      5.11      0.01         0.01
  YS02001765YS02001762        3.45      3.45      4.68      0.01         0.01
  YS02001770YS02001767        2.38      2.39      2.54      0.01         0.14
  YS02001774YS02001770        1.53      1.53      4.34      0.01         0.01
  YS02001779YS02001774        0.01      0.01      4.34      0.01         0.01
  YS02001649YS02001757        4.81      4.81      5.30      0.01         0.01
  YS02001767YS02001765        2.54      2.54      3.45      0.01         0.01
  YS02001788YS02001790        0.01      0.01      4.28      0.01         0.01
  YS02001790YS02001791        4.28      4.28      4.44      0.01         0.01
  YS02001791YS02001793        4.44      4.44      4.82      0.01         0.01
  YS02001629YS02163301        0.13      0.13      1.82      0.01         0.01
  YS02163301YS02001633        1.82      1.82      3.43      0.01         0.01
  YS02163601YS02164001        3.26      3.26      4.74      0.01         0.01
  YS02164001YS02001641        3.26      3.26      3.92      0.01         0.01
  YS02001641YS02001644        3.90      3.92      4.07      0.01         0.27
  YS02001647YS02001649        0.01      0.01      4.81      0.01         0.01
  YS02001633YS02163601        2.86      2.86      4.74      0.01         0.01
  YS02001644YS02001647        0.01      0.01      4.07      0.01         0.01
  YS02001754YS02001757        0.01      0.01      5.30      0.01         0.01
  YS02001652YS02001649        0.01      0.01      4.81      0.01         0.01
  YS02001793JiankangQianchi        4.72      4.72      5.97      0.01         0.01
  YS02001757CaochengTiaoxuchi        0.01      0.01      5.30      0.01         0.01
  
  
  ***************
  Pumping Summary
  ***************
  
  ---------------------------------------------------------------------------------------------------------
                                                  Min       Avg       Max     Total     Power    % Time Off
                        Percent   Number of      Flow      Flow      Flow    Volume     Usage    Pump Curve
  Pump                 Utilized   Start-Ups       LPS       LPS       LPS  10^6 ltr     Kw-hr    Low   High
  ---------------------------------------------------------------------------------------------------------
  CC-Pump-1                0.00           0      0.00      0.00      0.00     0.000      0.00    0.0    0.0
  CC-Pump-2               70.72           1      0.00    199.12    200.00     3.957     12.78    0.0   18.6
  JK-Pump-1               25.52           2      0.00    220.80    300.00     0.994      6.79    0.0    0.0
  JK-Pump-2               12.76           1      0.00    100.95    300.00     0.094      1.48    0.0    0.0
  XR-Pump-1               95.73           1      0.00     94.29     95.00     2.536     59.57    0.0    0.0
  XR-Pump-2               82.98           3      0.00     90.28     95.00     2.109     50.70    0.0    0.0
  XR-Pump-3               91.49           2      0.00     92.03     95.00     2.394     54.86    0.0    0.0
  XR-Pump-4               95.73           1      0.00     94.29     95.00     2.536     59.57    0.0    0.0
  

  Analysis begun on:  Thu Jan  6 00:35:51 2022
  Analysis ended on:  Thu Jan  6 00:35:53 2022
  Total elapsed time: 00:00:02