
  EPA STORM WATER MANAGEMENT MODEL - VERSION 5.1 (Build 5.3.0.dev0)
  --------------------------------------------------------------

  WARNING 04: minimum elevation drop used for Conduit WS02004404WS02004405
  WARNING 03: negative offset ignored for Link YS02001904YS02001907
  
  *********************************************************
  NOTE: The summary statistics displayed in this report are
  based on results found at every computational time step,  
  not just on results from each reporting time step.
  *********************************************************
  
  ****************
  Analysis Options
  ****************
  Flow Units ............... LPS
  Process Models:
    Rainfall/Runoff ........ YES
    RDII ................... NO
    Snowmelt ............... NO
    Groundwater ............ NO
    Flow Routing ........... YES
    Ponding Allowed ........ NO
    Water Quality .......... NO
  Infiltration Method ...... HORTON
  Flow Routing Method ...... DYNWAVE
  Surcharge Method ......... EXTRAN
  Starting Date ............ 08/28/2015 08:00:00
  Ending Date .............. 08/28/2015 15:50:00
  Antecedent Dry Days ...... 8.0
  Report Time Step ......... 00:01:00
  Wet Time Step ............ 00:01:00
  Dry Time Step ............ 00:01:00
  Routing Time Step ........ 5.00 sec
  Variable Time Step ....... YES
  Maximum Trials ........... 8
  Number of Threads ........ 4
  Head Tolerance ........... 0.001500 m
  
  
  **************************        Volume         Depth
  Runoff Quantity Continuity     hectare-m            mm
  **************************     ---------       -------
  Total Precipitation ......         2.606         5.704
  Evaporation Loss .........         0.000         0.000
  Infiltration Loss ........         0.653         1.430
  Surface Runoff ...........         1.076         2.357
  Final Storage ............         0.876         1.918
  Continuity Error (%) .....        -0.018
  
  
  **************************        Volume        Volume
  Flow Routing Continuity        hectare-m      10^6 ltr
  **************************     ---------     ---------
  Dry Weather Inflow .......         0.616         6.165
  Wet Weather Inflow .......         1.076        10.757
  Groundwater Inflow .......         0.000         0.000
  RDII Inflow ..............         0.000         0.000
  External Inflow ..........         0.102         1.024
  External Outflow .........         1.617        16.172
  Flooding Loss ............         0.035         0.350
  Evaporation Loss .........         0.000         0.000
  Exfiltration Loss ........         0.000         0.000
  Initial Stored Volume ....         0.076         0.761
  Final Stored Volume ......         0.307         3.074
  Continuity Error (%) .....        -4.756
  
  
  *************************
  Highest Continuity Errors
  *************************
  Node HS02004842 (29.23%)
  Node YS02001884 (23.51%)
  Node YS02001774 (12.17%)
  Node YSB1171 (7.25%)
  Node HS02004901 (5.76%)
  
  
  ***************************
  Time-Step Critical Elements
  ***************************
  Link WS02006252WS02006251 (86.17%)
  Link 3 (7.51%)
  Link WS02006280WS02006229 (2.38%)
  
  
  ********************************
  Highest Flow Instability Indexes
  ********************************
  Link WS02006113WS02006111 (47)
  Link WS02006111WS02006112 (25)
  Link YS02001655YS02001652 (4)
  Link YS02001629YS02163301 (4)
  Link YS02001644YS02001647 (4)
  
  
  *************************
  Routing Time Step Summary
  *************************
  Minimum Time Step           :     0.32 sec
  Average Time Step           :     0.89 sec
  Maximum Time Step           :     5.00 sec
  Percent in Steady State     :    -0.00
  Average Iterations per Step :     2.24
  Percent Not Converging      :     2.93
  
  
  ***************************
  Subcatchment Runoff Summary
  ***************************
  
  ------------------------------------------------------------------------------------------------------------------------------
                            Total      Total      Total      Total     Imperv       Perv      Total       Total     Peak  Runoff
                           Precip      Runon       Evap      Infil     Runoff     Runoff     Runoff      Runoff   Runoff   Coeff
  Subcatchment                 mm         mm         mm         mm         mm         mm         mm    10^6 ltr      LPS
  ------------------------------------------------------------------------------------------------------------------------------
  sub0                       5.70       0.00       0.00       0.40       4.04       0.00       4.04        0.00     1.41   0.708
  sub1                       5.70       0.00       0.00       0.63       3.82       0.00       3.82        0.03     7.22   0.670
  sub2                       5.70       0.00       0.00       2.11       2.69       0.00       2.69        0.03     6.36   0.471
  sub3                       5.70       0.00       0.00       2.11       2.65       0.00       2.65        0.06    13.02   0.465
  sub4                       5.70       0.00       0.00       0.63       3.69       0.00       3.69        0.08    14.55   0.646
  sub5                       5.70       0.00       0.00       0.40       3.99       0.00       3.99        0.05    12.85   0.700
  sub7                       5.70       0.00       0.00       0.51       3.94       0.00       3.94        0.01     4.57   0.690
  sub8                       5.70       0.00       0.00       0.51       3.93       0.00       3.93        0.03     8.03   0.689
  sub9                       5.70       0.00       0.00       0.51       3.93       0.00       3.93        0.02     5.95   0.688
  sub10                      5.70       0.00       0.00       0.46       3.96       0.00       3.96        0.04    12.84   0.694
  sub11                      5.70       0.00       0.00       0.46       3.97       0.00       3.97        0.05    15.14   0.697
  sub12                      5.70       0.00       0.00       0.74       3.77       0.00       3.77        0.03    12.93   0.662
  sub14                      5.70       0.00       0.00       0.51       3.92       0.00       3.92        0.04    11.63   0.688
  sub15                      5.70       0.00       0.00       1.71       3.02       0.00       3.02        0.05    15.75   0.529
  sub16                      5.70       0.00       0.00       1.88       2.90       0.00       2.90        0.03    11.34   0.509
  sub17                      5.70       0.00       0.00       1.83       2.95       0.00       2.95        0.03     9.14   0.516
  sub22                      5.70       0.00       0.00       2.45       2.46       0.00       2.46        0.16    51.83   0.432
  sub23                      5.70       0.00       0.00       2.11       2.72       0.00       2.72        0.13    44.17   0.478
  sub60                      5.70       0.00       0.00       0.68       2.62       0.00       2.62        0.79    72.66   0.459
  sub61                      5.70       0.00       0.00       0.97       2.81       0.00       2.81        0.87    91.45   0.493
  sub62                      5.70       0.00       0.00       0.46       3.01       0.00       3.01        0.93    93.36   0.528
  sub63                      5.70       0.00       0.00       1.65       2.51       0.00       2.51        0.76    85.50   0.439
  sub64                      5.70       0.00       0.00       0.86       2.50       0.00       2.50        0.76    68.99   0.438
  sub65                      5.70       0.00       0.00       0.74       2.53       0.00       2.53        0.78    69.98   0.444
  sub66                      5.70       0.00       0.00       1.65       2.19       0.00       2.19        0.67    63.30   0.383
  sub67                      5.70       0.00       0.00       0.46       3.32       0.00       3.32        1.02   120.30   0.582
  sub68                      5.70       0.00       0.00       0.80       2.99       0.00       2.99        0.92   101.21   0.525
  sub69                      5.70       0.00       0.00       0.86       3.24       0.00       3.24        0.76   101.03   0.568
  sub70                      5.70       3.31       0.00       3.06       3.95       0.00       3.95        0.90    80.29   0.438
  sub71                      5.70       0.00       0.00       0.46       2.88       0.00       2.88        0.68    65.09   0.504
  sub72                      5.70       0.00       0.00       0.40       2.01       0.00       2.01        0.41    30.49   0.353
  sub73                      5.70       3.84       0.00       3.25       4.00       0.00       4.00        0.94    68.79   0.419
  sub74                      5.70       0.00       0.00       4.28       0.98       0.00       0.98        0.39    56.49   0.171
  
  
  ******************
  Node Depth Summary
  ******************
  
  ---------------------------------------------------------------------------------
                                 Average  Maximum  Maximum  Time of Max    Reported
                                   Depth    Depth      HGL   Occurrence   Max Depth
  Node                 Type       Meters   Meters   Meters  days hr:min      Meters
  ---------------------------------------------------------------------------------
  WS02001211           JUNCTION     0.70     0.77     5.61     0  05:18        0.77
  WS02001212           JUNCTION     0.42     0.48     5.54     0  05:17        0.48
  WS02001213           JUNCTION     0.65     0.71     5.47     0  05:17        0.71
  WS02003069           JUNCTION     0.44     0.50     5.08     0  05:15        0.50
  WS02003072           JUNCTION     0.51     0.56     4.93     0  05:16        0.56
  WS02003073           JUNCTION     0.31     0.34     4.41     0  05:16        0.34
  WS02003060           JUNCTION     0.39     0.44     5.37     0  05:15        0.44
  WS02003066           JUNCTION     0.22     0.28     5.83     0  02:50        0.28
  WS02003059           JUNCTION     0.70     0.76     5.45     0  05:16        0.76
  WS02003067           JUNCTION     0.54     0.67     5.99     0  02:49        0.67
  WS02004401           JUNCTION     0.62     0.79     6.79     0  02:45        0.79
  WS02004402           JUNCTION     0.66     0.82     6.78     0  02:45        0.82
  WS02004403           JUNCTION     0.68     0.84     6.77     0  02:46        0.84
  WS02004404           JUNCTION     0.76     0.91     6.76     0  02:46        0.91
  WS02004406           JUNCTION     0.77     0.91     6.74     0  02:46        0.91
  WS02004409           JUNCTION     0.44     0.61     6.38     0  02:48        0.61
  WS02004410           JUNCTION     0.47     0.63     6.35     0  02:49        0.63
  WS02004411           JUNCTION     0.48     0.64     6.32     0  02:49        0.64
  WS02004412           JUNCTION     0.50     0.65     6.29     0  02:49        0.65
  WS02004413           JUNCTION     0.66     0.81     6.28     0  02:49        0.81
  WS02004405           JUNCTION     0.75     0.91     6.76     0  02:46        0.91
  WS02006109           JUNCTION     0.70     0.88     7.50     0  02:41        0.88
  WS02006110           JUNCTION     0.70     0.86     7.45     0  02:41        0.86
  WS02006111           JUNCTION     0.20     0.26     6.97     0  02:42        0.26
  WS02006112           JUNCTION     0.78     0.98     6.86     0  02:45        0.98
  WS02006113           JUNCTION     0.31     0.42     7.31     0  02:42        0.42
  WS02006115           JUNCTION     0.51     0.69     6.83     0  02:46        0.69
  WS02006116           JUNCTION     0.60     0.77     6.81     0  02:45        0.77
  WS02006230           JUNCTION     0.64     0.89     7.64     0  02:42        0.89
  WS02006231           JUNCTION     0.42     0.58     7.70     0  02:43        0.58
  WS02006232           JUNCTION     0.55     0.71     7.75     0  02:44        0.71
  WS02006234           JUNCTION     0.46     0.63     7.79     0  02:45        0.63
  WS02006235           JUNCTION     0.49     0.65     7.82     0  02:45        0.65
  WS02006238           JUNCTION     0.52     0.68     7.82     0  02:45        0.68
  WS02006240           JUNCTION     0.43     0.57     7.86     0  02:46        0.57
  WS02006242           JUNCTION     0.49     0.62     7.89     0  02:46        0.62
  WS02006243           JUNCTION     0.37     0.49     7.91     0  02:46        0.49
  WS02006245           JUNCTION     0.37     0.46     7.95     0  02:46        0.46
  WS02006247           JUNCTION     0.39     0.48     7.98     0  02:46        0.48
  WS02006248           JUNCTION     0.34     0.42     8.00     0  02:46        0.42
  WS02006249           JUNCTION     0.38     0.45     8.04     0  02:45        0.45
  WS02006239           JUNCTION     0.48     0.63     7.84     0  02:46        0.63
  WS02006251           JUNCTION     0.37     0.43     8.10     0  02:45        0.43
  WS02006252           JUNCTION     0.32     0.35     8.59     0  02:23        0.35
  WS02006253           JUNCTION     0.39     0.46     8.10     0  02:44        0.46
  WS02006256           JUNCTION     0.84     1.19     8.12     0  00:30        1.19
  WS02004138           JUNCTION     0.17     0.19     7.44     0  01:20        0.19
  WS02004407           JUNCTION     0.20     0.27     6.59     0  02:46        0.27
  WS02006228           JUNCTION     0.68     0.90     7.55     0  02:41        0.90
  WS02006229           JUNCTION     0.65     0.89     7.58     0  02:41        0.89
  WS02006280           JUNCTION     0.05     0.14     8.41     0  02:18        0.14
  WS02006284           JUNCTION     0.35     0.48     8.88     0  02:18        0.48
  WS02006287           JUNCTION     0.07     0.21     9.16     0  02:18        0.21
  WSF200               JUNCTION     0.20     0.28     5.51     0  02:50        0.28
  HS02004901           JUNCTION     0.11     0.23    10.05     0  02:16        0.23
  HS02004881           JUNCTION     0.01     0.02     9.05     0  02:17        0.02
  HS02004876           JUNCTION     0.03     0.10     9.13     0  02:16        0.10
  HS02004870           JUNCTION     0.01     0.04     9.33     0  02:18        0.04
  HS02004862           JUNCTION     0.01     0.05     9.43     0  02:19        0.05
  HS02004856           JUNCTION     0.07     0.10     9.53     0  02:18        0.10
  HS02004852           JUNCTION     0.01     0.03     9.54     0  02:19        0.03
  HS02004848           JUNCTION     0.01     0.03     9.63     0  02:17        0.03
  HS02004842           JUNCTION     0.33     0.36     9.63     0  02:17        0.36
  HS02004837           JUNCTION     0.03     0.05     9.63     0  02:17        0.05
  HS02004830           JUNCTION     0.04     0.06     9.53     0  02:18        0.06
  HS02004824           JUNCTION     0.02     0.04     9.44     0  02:21        0.04
  HS02004817           JUNCTION     0.42     0.52     9.37     0  02:19        0.52
  HS02004807           JUNCTION     0.11     0.20     9.37     0  02:19        0.20
  HS02004802           JUNCTION     0.15     0.23     9.36     0  02:19        0.23
  HS02004799           JUNCTION     0.10     0.25     9.46     0  02:17        0.25
  HS02004792           JUNCTION     0.02     0.10     9.62     0  02:16        0.10
  HS02004788           JUNCTION     0.02     0.07     9.97     0  02:17        0.07
  HS02004785           JUNCTION     0.03     0.13    10.03     0  02:16        0.13
  HS02004777           JUNCTION     0.13     0.25    10.05     0  02:16        0.25
  HS02004770           JUNCTION     0.10     0.22    10.05     0  02:16        0.22
  HS02004480           JUNCTION     0.06     0.20     9.44     0  02:17        0.20
  HS02004479           JUNCTION     0.10     0.23     9.44     0  02:17        0.23
  HS02004478           JUNCTION     0.05     0.12     9.35     0  02:18        0.12
  YS02001745           JUNCTION     0.08     0.11     7.63     0  03:01        0.11
  YS02001748           JUNCTION     0.37     0.50     7.58     0  05:11        0.49
  YS02001751           JUNCTION     0.55     0.70     7.58     0  05:09        0.68
  YS02001754           JUNCTION     0.80     0.98     7.58     0  05:00        0.95
  YS02001762           JUNCTION     1.00     1.17     7.57     0  06:19        1.16
  YS02001765           JUNCTION     0.95     1.13     7.58     0  06:19        1.11
  YS02001767           JUNCTION     0.91     1.09     7.58     0  06:19        1.07
  YS02001770           JUNCTION     0.91     1.07     7.57     0  05:16        1.07
  YS02001774           JUNCTION     0.98     1.14     7.57     0  05:16        1.14
  YS02001779           JUNCTION     0.73     0.88     7.57     0  05:02        0.88
  YS02001882           JUNCTION     0.27     0.45     7.16     0  02:52        0.45
  YS02001884           JUNCTION     0.37     0.54     7.16     0  02:53        0.54
  YS02001759           JUNCTION     1.03     1.20     7.57     0  05:17        1.19
  YS02001887           JUNCTION     0.45     0.62     7.16     0  02:53        0.62
  YS02001890           JUNCTION     0.48     0.65     7.16     0  02:53        0.65
  YS02001898           JUNCTION     0.25     0.41     7.14     0  02:54        0.41
  YS02001901           JUNCTION     0.36     0.54     7.14     0  02:54        0.54
  YS02001904           JUNCTION     0.34     0.51     7.14     0  02:54        0.51
  YS02001907           JUNCTION     0.67     0.85     7.14     0  02:55        0.85
  YS02001910           JUNCTION     0.46     0.64     7.14     0  02:55        0.64
  YS02001915           JUNCTION     0.26     0.42     7.14     0  02:54        0.42
  YS02001918           JUNCTION     0.07     0.09     7.16     0  03:03        0.09
  YS02001619           JUNCTION     0.51     0.64     7.57     0  05:16        0.64
  YS02001629           JUNCTION     0.86     1.02     7.57     0  05:15        1.02
  YS02001641           JUNCTION     0.96     1.20     7.63     0  04:06        1.16
  YS02001644           JUNCTION     0.97     1.17     7.60     0  04:06        1.16
  YS02001652           JUNCTION     0.81     0.99     7.59     0  05:21        0.99
  YS02001655           JUNCTION     0.58     0.73     7.58     0  05:19        0.73
  YS02001920           JUNCTION     0.17     0.20     7.21     0  03:02        0.20
  YS02001923           JUNCTION     0.06     0.08     7.34     0  03:02        0.08
  YS02001926           JUNCTION     0.14     0.17     7.62     0  03:01        0.17
  YS02001929           JUNCTION     0.06     0.08     7.78     0  03:01        0.08
  YS02001658           JUNCTION     0.31     0.43     7.57     0  05:09        0.42
  YS02001661           JUNCTION     0.14     0.20     7.60     0  02:45        0.20
  YS02001664           JUNCTION     0.07     0.11     8.04     0  02:45        0.11
  YS02001622           JUNCTION     0.53     0.66     7.57     0  05:12        0.66
  YS02001633           JUNCTION     0.95     1.19     7.65     0  04:08        1.14
  YS02001649           JUNCTION     1.00     1.18     7.57     0  05:16        1.18
  YS02001757           JUNCTION     1.13     1.31     7.57     0  04:53        1.30
  YS02001895           JUNCTION     0.24     0.41     7.15     0  02:53        0.41
  YS02001625           JUNCTION     0.81     0.97     7.57     0  05:15        0.96
  YS02163301           JUNCTION     0.89     1.09     7.61     0  04:05        1.07
  YS02163601           JUNCTION     1.00     1.25     7.65     0  04:08        1.20
  YS02164001           JUNCTION     0.94     1.19     7.65     0  04:08        1.14
  YS02001647           JUNCTION     0.80     0.97     7.58     0  05:15        0.97
  YSB1154              JUNCTION     0.23     0.38     9.44     0  02:17        0.38
  YSB6556              JUNCTION     0.13     0.27     9.44     0  02:17        0.27
  YSB1174              JUNCTION     0.19     0.33     9.44     0  02:17        0.33
  YSB1171              JUNCTION     0.39     0.53     9.44     0  02:17        0.53
  YS02006553           JUNCTION     0.68     0.86     7.14     0  02:54        0.86
  YS02006561           JUNCTION     0.13     0.22     6.88     0  02:54        0.22
  YS02006556           JUNCTION     0.65     0.83     7.14     0  02:54        0.83
  YS02006558           JUNCTION     0.69     0.87     7.14     0  02:54        0.87
  YS02001783           JUNCTION     0.31     0.50     6.64     0  06:21        0.50
  YS02001784           JUNCTION     0.35     0.56     6.63     0  06:21        0.56
  YS02001786           JUNCTION     0.33     0.60     6.63     0  06:21        0.59
  YS02001788           JUNCTION     0.30     0.64     6.62     0  06:20        0.64
  YS02001790           JUNCTION     0.43     1.36     7.00     0  06:13        0.97
  YS02001791           JUNCTION     0.44     1.53     7.00     0  06:08        1.14
  YS02001793           JUNCTION     0.73     1.77     6.60     0  06:20        1.77
  WS02004139           JUNCTION     0.64     0.72     5.63     0  05:18        0.72
  WSC                  OUTFALL      0.31     0.34     1.01     0  05:17        0.34
  3                    OUTFALL      0.04     0.19     6.19     0  00:30        0.19
  4                    OUTFALL      0.00     0.00     7.00     0  00:00        0.00
  5                    OUTFALL      0.00     0.00     5.00     0  00:00        0.00
  JK-storage           STORAGE      3.48     5.80     6.60     0  06:19        5.80
  CC-storage           STORAGE      0.38     0.55     7.55     0  05:20        0.55
  XR-storage           STORAGE      2.92     6.95     4.95     0  05:03        6.95
  
  
  *******************
  Node Inflow Summary
  *******************
  
  -------------------------------------------------------------------------------------------------
                                  Maximum  Maximum                  Lateral       Total        Flow
                                  Lateral    Total  Time of Max      Inflow      Inflow     Balance
                                   Inflow   Inflow   Occurrence      Volume      Volume       Error
  Node                 Type           LPS      LPS  days hr:min    10^6 ltr    10^6 ltr     Percent
  -------------------------------------------------------------------------------------------------
  WS02001211           JUNCTION      7.35   388.12     0  05:23       0.207         8.6       0.492
  WS02001212           JUNCTION      0.00   388.66     0  05:23           0        8.56       0.275
  WS02001213           JUNCTION      0.00   389.20     0  05:23           0        8.54       0.296
  WS02003069           JUNCTION      0.32   712.90     0  05:15     0.00902        14.8       0.211
  WS02003072           JUNCTION      0.00   712.73     0  05:15           0        14.8       0.256
  WS02003073           JUNCTION      1.82   714.57     0  05:16      0.0514        14.8       0.290
  WS02003060           JUNCTION     16.53   712.59     0  05:14       0.466        14.8       0.199
  WS02003066           JUNCTION      0.00   460.07     0  02:49           0        5.88       0.064
  WS02003059           JUNCTION      0.00   390.12     0  05:23           0        8.52       0.492
  WS02003067           JUNCTION      0.00   460.05     0  02:49           0        5.89       0.139
  WS02004401           JUNCTION      0.00   461.95     0  02:44           0        6.09       0.311
  WS02004402           JUNCTION      0.00   461.65     0  02:45           0        6.07       0.297
  WS02004403           JUNCTION      0.00   461.51     0  02:45           0        6.06       0.273
  WS02004404           JUNCTION      0.16   461.61     0  02:45     0.00457        6.04       0.210
  WS02004406           JUNCTION      0.00   461.61     0  02:46           0        6.01       0.513
  WS02004409           JUNCTION      0.00   461.58     0  02:46           0        5.98       0.220
  WS02004410           JUNCTION      0.00   460.92     0  02:47           0        5.96       0.254
  WS02004411           JUNCTION      0.00   460.52     0  02:48           0        5.95       0.266
  WS02004412           JUNCTION      0.00   460.28     0  02:48           0        5.93       0.294
  WS02004413           JUNCTION      0.00   460.13     0  02:49           0        5.92       0.447
  WS02004405           JUNCTION      0.04   461.63     0  02:45     0.00107        6.03       0.315
  WS02006109           JUNCTION      1.23   460.47     0  02:41      0.0347        6.18       0.329
  WS02006110           JUNCTION      0.00   460.48     0  02:41           0        6.16       0.304
  WS02006111           JUNCTION      0.00   474.39     0  02:42           0        6.13       0.059
  WS02006112           JUNCTION      9.14   466.11     0  02:42      0.0252        6.15       0.438
  WS02006113           JUNCTION      0.00   460.57     0  02:41           0        6.14       0.128
  WS02006115           JUNCTION      0.00   463.54     0  02:42           0        6.13       0.279
  WS02006116           JUNCTION      0.00   462.50     0  02:43           0        6.11       0.260
  WS02006230           JUNCTION     10.28   332.99     0  02:52        0.29        5.31       0.218
  WS02006231           JUNCTION      0.00   322.21     0  02:53           0        5.03       0.123
  WS02006232           JUNCTION      0.00   321.99     0  02:53           0        5.04       0.283
  WS02006234           JUNCTION      0.00   321.61     0  02:53           0        5.04       0.138
  WS02006235           JUNCTION      0.00   321.40     0  02:53           0        5.07       0.158
  WS02006238           JUNCTION      0.00   228.55     0  05:10           0        4.06       0.151
  WS02006240           JUNCTION      0.00   228.20     0  02:31           0        4.05       0.261
  WS02006242           JUNCTION      0.00   230.52     0  02:31           0        4.06       0.317
  WS02006243           JUNCTION      0.00   231.96     0  02:29           0        4.06       0.173
  WS02006245           JUNCTION      0.00   232.82     0  02:30           0        4.06       0.212
  WS02006247           JUNCTION      0.00   233.50     0  02:29           0        4.07       0.162
  WS02006248           JUNCTION      0.00   234.01     0  02:28           0        4.07       0.107
  WS02006249           JUNCTION      0.00   234.64     0  02:27           0        4.08       0.237
  WS02006239           JUNCTION      0.00   224.69     0  02:30           0        4.05       0.179
  WS02006251           JUNCTION      0.08   235.86     0  02:25     0.00217        4.09       0.214
  WS02006252           JUNCTION      0.00   200.00     0  02:23           0        3.95       0.011
  WS02006253           JUNCTION      1.41    40.04     0  02:17     0.00327       0.142       2.632
  WS02006256           JUNCTION      0.00   600.00     0  00:30           0        2.48       0.081
  WS02004138           JUNCTION      0.00   380.00     0  01:20           0        8.44       0.063
  WS02004407           JUNCTION      0.00   461.59     0  02:46           0        5.98       0.101
  WS02006228           JUNCTION      0.00   459.25     0  02:41           0        6.16       0.219
  WS02006229           JUNCTION      0.00   459.23     0  02:41           0        6.17       0.203
  WS02006280           JUNCTION      0.00   205.91     0  02:18           0       0.877       0.008
  WS02006284           JUNCTION      0.10   205.90     0  02:18      0.0027       0.878       0.121
  WS02006287           JUNCTION      0.00   205.77     0  02:18           0       0.876       0.083
  WSF200               JUNCTION      0.00   460.06     0  02:50           0        5.88       0.059
  HS02004901           JUNCTION     11.34    11.34     0  02:10      0.0304      0.0305       6.107
  HS02004881           JUNCTION      4.57    38.97     0  02:17      0.0133       0.139       0.232
  HS02004876           JUNCTION      7.22    34.73     0  02:18      0.0254       0.127       0.418
  HS02004870           JUNCTION      8.03    27.66     0  02:18      0.0251       0.101       0.105
  HS02004862           JUNCTION      6.56    20.18     0  02:18      0.0307      0.0763       0.221
  HS02004856           JUNCTION      5.95    13.67     0  02:17      0.0189      0.0471       3.143
  HS02004852           JUNCTION      0.00     8.10     0  02:18           0      0.0283       0.179
  HS02004848           JUNCTION     13.02    13.02     0  02:20      0.0597      0.0597       0.073
  HS02004842           JUNCTION      0.00     5.38     0  02:30           0      0.0445      41.307
  HS02004837           JUNCTION     19.19    23.75     0  02:17       0.223       0.254       0.319
  HS02004830           JUNCTION      0.15    23.88     0  02:17     0.00423       0.245       0.506
  HS02004824           JUNCTION     14.60    38.30     0  02:21      0.0782       0.322       0.168
  HS02004817           JUNCTION      0.60    38.89     0  02:21      0.0169       0.338       5.187
  HS02004807           JUNCTION     15.14    52.63     0  02:19      0.0461       0.367       1.163
  HS02004802           JUNCTION      0.00    52.91     0  02:21           0       0.363       1.132
  HS02004799           JUNCTION     11.63   130.57     0  02:16      0.0373       0.454       0.501
  HS02004792           JUNCTION     52.11   119.23     0  02:15       0.163       0.417       0.099
  HS02004788           JUNCTION     17.42    69.44     0  02:16      0.0989       0.254       0.154
  HS02004785           JUNCTION      0.15    52.43     0  02:16     0.00423       0.158       0.307
  HS02004777           JUNCTION      0.03    52.76     0  02:14    0.000846       0.158       3.391
  HS02004770           JUNCTION     44.17    54.12     0  02:12        0.13       0.159       1.991
  HS02004480           JUNCTION      0.00   153.88     0  02:17           0       0.529       0.137
  HS02004479           JUNCTION      0.00    23.84     0  02:18           0      0.0877       0.839
  HS02004478           JUNCTION      0.00   205.76     0  02:18           0       0.877       0.071
  YS02001745           JUNCTION     72.67    72.67     0  03:01       0.793       0.793       0.102
  YS02001748           JUNCTION      0.04    86.16     0  03:01     0.00127       0.811       0.506
  YS02001751           JUNCTION      0.01   157.12     0  03:00     0.00031       0.808       1.484
  YS02001754           JUNCTION      0.26    95.95     0  02:38     0.00733       0.786       2.467
  YS02001762           JUNCTION      0.00   131.00     0  03:03           0       0.868       2.328
  YS02001765           JUNCTION      0.00   119.62     0  03:10           0       0.868       2.526
  YS02001767           JUNCTION      0.54   146.69     0  03:11      0.0151       0.886       3.817
  YS02001770           JUNCTION     93.52   160.31     0  03:06       0.929        1.01       2.871
  YS02001774           JUNCTION      0.00    65.30     0  03:24           0       0.195      13.859
  YS02001779           JUNCTION      0.01    72.01     0  03:26    0.000141      0.0888      14.996
  YS02001882           JUNCTION      0.00     4.11     0  02:08           0     0.00514      47.615
  YS02001884           JUNCTION      0.00    11.69     0  02:08           0      0.0206      30.732
  YS02001759           JUNCTION     91.49   213.81     0  03:01       0.867         1.7       1.313
  YS02001887           JUNCTION    120.75   120.75     0  02:43        1.04        1.05       0.684
  YS02001890           JUNCTION      0.00   120.07     0  02:45           0        1.02       0.768
  YS02001898           JUNCTION      0.00   119.52     0  02:47           0        1.01       0.214
  YS02001901           JUNCTION      0.00   119.39     0  02:49           0        1.01       0.544
  YS02001904           JUNCTION      0.00   118.81     0  02:49           0        1.01       0.506
  YS02001907           JUNCTION      0.00   215.97     0  02:56           0        2.16       1.027
  YS02001910           JUNCTION      0.00    98.78     0  03:01           0        1.16       0.877
  YS02001915           JUNCTION     65.11    98.18     0  03:01       0.679        1.17       0.387
  YS02001918           JUNCTION      0.00    33.35     0  03:02           0       0.488       0.226
  YS02001619           JUNCTION     63.30    63.30     0  02:59        0.67        0.67       0.785
  YS02001629           JUNCTION      0.00   108.89     0  03:03           0       0.625       2.725
  YS02001641           JUNCTION      0.00   159.08     0  03:03           0        1.33       1.509
  YS02001644           JUNCTION     69.03   222.02     0  03:05       0.761        2.06       1.211
  YS02001652           JUNCTION      0.00   115.72     0  02:59           0       0.755       2.488
  YS02001655           JUNCTION      0.15   153.04     0  02:58     0.00434       0.777       1.741
  YS02001920           JUNCTION      2.87    33.37     0  03:02      0.0809       0.491       0.413
  YS02001923           JUNCTION      0.04    30.50     0  03:01     0.00106        0.41       0.072
  YS02001926           JUNCTION      0.05    30.53     0  03:01     0.00147       0.411       0.517
  YS02001929           JUNCTION     30.49    30.49     0  03:01        0.41        0.41       0.070
  YS02001658           JUNCTION      0.00   100.86     0  04:02           0       0.773       0.555
  YS02001661           JUNCTION      0.00    85.50     0  02:45           0       0.758       0.088
  YS02001664           JUNCTION     85.50    85.50     0  02:45       0.758       0.758       0.022
  YS02001622           JUNCTION      0.00    90.46     0  03:02           0       0.665       2.357
  YS02001633           JUNCTION     70.18   150.65     0  03:12       0.784        1.37       2.071
  YS02001649           JUNCTION      0.00   331.25     0  03:06           0        2.73       1.327
  YS02001757           JUNCTION      0.00   543.50     0  03:03           0         5.1       1.820
  YS02001895           JUNCTION      0.00   119.57     0  02:45           0        1.02       0.365
  YS02001625           JUNCTION      0.00    96.91     0  03:20           0       0.652       4.938
  YS02163301           JUNCTION      0.00    98.59     0  03:19           0       0.615       3.553
  YS02163601           JUNCTION      0.11   158.80     0  03:03      0.0031        1.34       2.177
  YS02164001           JUNCTION      0.00   167.96     0  03:03           0        1.32       1.293
  YS02001647           JUNCTION      0.00   220.20     0  03:08           0        2.02       1.172
  YSB1154              JUNCTION     12.85    12.85     0  02:15      0.0452      0.0466       3.195
  YSB6556              JUNCTION      0.00    12.79     0  02:17           0      0.0477       2.683
  YSB1174              JUNCTION     12.93    12.93     0  02:09       0.033       0.034       3.923
  YSB1171              JUNCTION      0.00    23.82     0  02:17           0      0.0872       7.814
  YS02006553           JUNCTION      0.00   216.03     0  02:57           0        2.15       0.666
  YS02006561           JUNCTION      0.00   317.02     0  02:54           0        3.04       0.021
  YS02006556           JUNCTION      0.00   216.16     0  03:02           0        2.16       0.481
  YS02006558           JUNCTION    102.09   317.03     0  02:54       0.945        3.07       0.147
  YS02001783           JUNCTION      0.00   317.01     0  02:54           0        3.04       0.236
  YS02001784           JUNCTION      1.06   318.08     0  02:55      0.0299        3.07       0.348
  YS02001786           JUNCTION      0.06   318.11     0  02:55     0.00159        3.06       0.444
  YS02001788           JUNCTION      0.07   318.18     0  02:55       0.002        3.05       0.456
  YS02001790           JUNCTION      0.15   318.33     0  02:56     0.00437        3.04       0.570
  YS02001791           JUNCTION      0.00   338.14     0  03:11           0        3.02       0.488
  YS02001793           JUNCTION      0.00   653.82     0  02:37           0        3.04       0.542
  WS02004139           JUNCTION      0.32   380.37     0  01:20     0.00905        8.44       0.510
  WSC                  OUTFALL       0.00   714.60     0  05:17           0        14.7       0.000
  3                    OUTFALL       0.00   446.15     0  00:30           0        1.44       0.000
  4                    OUTFALL       0.00     0.00     0  00:00           0           0       0.000 ltr
  5                    OUTFALL       0.00     0.00     0  00:00           0           0       0.000 ltr
  JK-storage           STORAGE       0.00   882.87     0  02:37           0        3.17       0.492
  CC-storage           STORAGE       0.00   534.57     0  03:02           0        5.01       0.437
  XR-storage           STORAGE     317.88   317.88     0  02:54        6.97        7.57     -10.260
  
  
  **********************
  Node Surcharge Summary
  **********************
  
  Surcharging occurs when water rises above the top of the highest conduit.
  ---------------------------------------------------------------------
                                               Max. Height   Min. Depth
                                   Hours       Above Crown    Below Rim
  Node                 Type      Surcharged         Meters       Meters
  ---------------------------------------------------------------------
  WS02006109           JUNCTION        0.69          0.064        1.756
  WS02006232           JUNCTION        0.22          0.008        1.472
  WS02006228           JUNCTION        0.66          0.074        2.126
  YS02001762           JUNCTION        4.83          0.171        0.979
  YS02001765           JUNCTION        3.70          0.130        0.970
  YS02001767           JUNCTION        2.78          0.087        0.943
  YS02001770           JUNCTION        1.95          0.041        0.879
  YS02001774           JUNCTION        4.51          0.143        0.907
  YS02001759           JUNCTION        5.13          0.203        1.007
  YS02001641           JUNCTION        4.26          0.196        0.904
  YS02001644           JUNCTION        4.37          0.171        0.749
  YS02001633           JUNCTION        3.10          0.174        0.886
  YS02001649           JUNCTION        4.96          0.182        0.868
  YS02001757           JUNCTION        5.30          0.308        0.902
  YS02163301           JUNCTION        2.16          0.094        0.936
  YS02163601           JUNCTION        4.88          0.251        0.829
  YS02164001           JUNCTION        3.51          0.187        0.913
  YS02001790           JUNCTION        1.58          0.560        0.597
  YS02001791           JUNCTION        1.68          0.729        1.191
  YS02001793           JUNCTION        2.02          0.771        1.829
  
  
  *********************
  Node Flooding Summary
  *********************
  
  Flooding refers to all water that overflows a node, whether it ponds or not.
  --------------------------------------------------------------------------
                                                             Total   Maximum
                                 Maximum   Time of Max       Flood    Ponded
                        Hours       Rate    Occurrence      Volume     Depth
  Node                 Flooded       LPS   days hr:min    10^6 ltr    Meters
  --------------------------------------------------------------------------
  JK-storage              1.51    113.63      0  06:22       0.350     0.000
  
  
  **********************
  Storage Volume Summary
  **********************
  
  --------------------------------------------------------------------------------------------------
                         Average     Avg  Evap Exfil       Maximum     Max    Time of Max    Maximum
                          Volume    Pcnt  Pcnt  Pcnt        Volume    Pcnt     Occurrence    Outflow
  Storage Unit           1000 m3    Full  Loss  Loss       1000 m3    Full    days hr:min        LPS
  --------------------------------------------------------------------------------------------------
  JK-storage               0.175      60     0     0         0.291     100       0  06:19     603.31
  CC-storage               1.063       7     0     0         1.527      10       0  05:20     200.00
  XR-storage               0.350      38     0     0         0.834      90       0  05:03     380.00
  
  
  ***********************
  Outfall Loading Summary
  ***********************
  
  -----------------------------------------------------------
                         Flow       Avg       Max       Total
                         Freq      Flow      Flow      Volume
  Outfall Node           Pcnt       LPS       LPS    10^6 ltr
  -----------------------------------------------------------
  WSC                  100.00    588.12    714.60      14.731
  3                     44.94    149.95    446.15       1.441
  4                      0.00      0.00      0.00       0.000
  5                      0.00      0.00      0.00       0.000
  -----------------------------------------------------------
  System                36.23    738.07    877.71      16.171
  
  
  ********************
  Link Flow Summary
  ********************
  
  -----------------------------------------------------------------------------
                                 Maximum  Time of Max   Maximum    Max/    Max/
                                  |Flow|   Occurrence   |Veloc|    Full    Full
  Link                 Type          LPS  days hr:min     m/sec    Flow   Depth
  -----------------------------------------------------------------------------
  WS02003066WSF200     CONDUIT    460.06     0  02:50      2.64    0.08    0.21
  WS02006287WS02006284 CONDUIT    205.81     0  02:18      1.62    0.10    0.22
  WS02006284WS02006280 CONDUIT    205.91     0  02:18      1.86    0.09    0.20
  WS02006280WS02006229 CONDUIT    205.91     0  02:19      3.00    0.04    0.14
  WS02006229WS02006228 CONDUIT    459.25     0  02:41      0.91    1.52    1.00
  WS02006256WS02006235 CONDUIT    158.12     0  00:23      2.30    1.67    1.00
  WS02006253WS02006251 CONDUIT     40.17     0  02:18      0.49    0.12    0.63
  WS02006252WS02006251 CONDUIT    200.49     0  02:23      1.97    0.74    0.76
  WS02006251WS02006249 CONDUIT    234.64     0  02:27      0.97    0.68    0.63
  WS02006249WS02006248 CONDUIT    234.01     0  02:28      1.06    1.28    0.60
  WS02006248WS02006247 CONDUIT    233.50     0  02:29      1.03    0.51    0.63
  WS02006247WS02006245 CONDUIT    232.82     0  02:30      1.01    1.85    0.67
  WS02006245WS02006243 CONDUIT    231.96     0  02:29      1.11    0.69    0.68
  WS02006243WS02006242 CONDUIT    230.52     0  02:31      0.97    0.49    0.78
  WS02006242WS02006240 CONDUIT    228.20     0  02:31      0.88    0.91    0.84
  WS02006240WS02006239 CONDUIT    224.69     0  02:30      0.99    0.71    0.83
  WS02006239WS02006238 CONDUIT    228.55     0  05:10      0.84    0.73    0.92
  WS02006238WS02006235 CONDUIT    233.47     0  05:10      0.91    0.52    0.95
  WS02006235WS02006234 CONDUIT    321.61     0  02:53      0.94    3.39    0.90
  WS02006234WS02006232 CONDUIT    321.99     0  02:53      1.02    0.65    0.95
  WS02006232WS02006231 CONDUIT    322.21     0  02:53      0.94    0.68    0.90
  WS02006231WS02006230 CONDUIT    322.71     0  02:52      1.29    4.90    0.78
  WS02006230WS02006229 CONDUIT    333.82     0  02:52      0.87    7.43    1.00
  WS02006228WS02006109 CONDUIT    459.24     0  02:41      0.91    2.01    1.00
  WS02006116WS02004401 CONDUIT    461.95     0  02:44      0.77    0.64    0.78
  WS02006115WS02006116 CONDUIT    462.50     0  02:43      0.81    0.59    0.70
  WS02006113WS02006111 CONDUIT    474.39     0  02:42      2.33    0.57    0.43
  WS02006112WS02006115 CONDUIT    463.54     0  02:42      0.67    0.27    0.83
  WS02006111WS02006112 CONDUIT    462.22     0  02:42      1.32    0.22    0.66
  WS02006110WS02006113 CONDUIT    460.57     0  02:41      1.12    0.42    0.76
  WS02006109WS02006110 CONDUIT    460.48     0  02:41      0.92    0.89    0.97
  WS02004411WS02004412 CONDUIT    460.28     0  02:48      0.86    0.65    0.65
  WS02004401WS02004402 CONDUIT    461.65     0  02:45      0.80    0.55    0.81
  WS02004413WS02003067 CONDUIT    460.05     0  02:49      1.02    0.20    0.56
  WS02004412WS02004413 CONDUIT    460.13     0  02:49      0.75    0.31    0.73
  WS02004410WS02004411 CONDUIT    460.52     0  02:48      0.88    0.63    0.63
  WS02004409WS02004410 CONDUIT    460.92     0  02:47      0.91    0.60    0.62
  WS02004407WS02004409 CONDUIT    461.58     0  02:46      1.39    0.16    0.44
  WS02004406WS02004407 CONDUIT    461.59     0  02:46      0.95    0.21    0.59
  WS02004405WS02004406 CONDUIT    461.61     0  02:46      0.62    0.91    0.91
  WS02004404WS02004405 CONDUIT    461.59     0  02:45      0.88    4.52    0.91
  WS02004403WS02004404 CONDUIT    461.45     0  02:45      0.75    0.33    0.88
  WS02004402WS02004403 CONDUIT    461.51     0  02:45      0.79    0.66    0.83
  WS02004139WS02001211 CONDUIT    380.77     0  05:23      0.69    0.48    0.58
  WS02004138WS02004139 CONDUIT    380.05     0  01:20      2.95    0.08    0.43
  WS02003067WS02003066 CONDUIT    460.07     0  02:49      1.11    0.15    0.40
  WS02001213WS02003059 CONDUIT    390.12     0  05:23      0.68    0.64    0.72
  WS02001212WS02001213 CONDUIT    389.20     0  05:23      1.32    0.60    0.43
  WS02001211WS02001212 CONDUIT    388.66     0  05:23      0.78    0.30    0.62
  WS02003072WS02003073 CONDUIT    712.74     0  05:16      1.57    1.54    0.42
  WS02003069WS02003072 CONDUIT    712.73     0  05:15      1.49    0.34    0.44
  WS02003060WS02003069 CONDUIT    712.58     0  05:15      1.74    0.28    0.39
  WS02003059WS02003060 CONDUIT    391.44     0  05:22      0.95    0.26    0.60
  HS02004901HS02004770 CONDUIT     10.34     0  02:15      0.05    0.04    0.32
  HS02004876HS02004881 CONDUIT     34.80     0  02:18      0.56    0.37    0.09
  HS02004870HS02004876 CONDUIT     27.64     0  02:18      0.39    0.02    0.10
  HS02004842HS02004848 CONDUIT      5.38     0  02:30      0.03    0.00    0.27
  HS02004837HS02004842 CONDUIT      5.56     0  02:31      0.42    0.00    0.29
  HS02004830HS02004837 CONDUIT     23.73     0  02:17      0.44    0.02    0.08
  HS02004824HS02004830 CONDUIT     23.88     0  02:18      0.48    0.03    0.07
  HS02004817HS02004824 CONDUIT     38.29     0  02:21      0.17    0.02    0.40
  HS02004770HS02004777 CONDUIT     52.73     0  02:14      0.23    0.10    0.33
  HS02004799HS02004480 CONDUIT    130.38     0  02:16      0.59    0.16    0.31
  HS02004792HS02004799 CONDUIT    119.16     0  02:16      0.68    0.07    0.25
  HS02004788HS02004792 CONDUIT     69.37     0  02:17      0.83    0.05    0.12
  HS02004785HS02004788 CONDUIT     52.34     0  02:17      0.51    0.39    0.15
  HS02004777HS02004785 CONDUIT     52.28     0  02:16      0.27    0.06    0.27
  HS02004480HS02004478 CONDUIT    153.85     0  02:17      0.96    0.65    0.23
  HS02004479HS02004480 CONDUIT     24.06     0  02:20      0.15    0.02    0.31
  HS02004862HS02004870 CONDUIT     20.14     0  02:19      0.47    0.02    0.06
  HS02004848HS02004852 CONDUIT      8.10     0  02:18      0.31    0.01    0.04
  HS02004856HS02004862 CONDUIT     13.64     0  02:18      0.34    0.01    0.06
  HS02004852HS02004856 CONDUIT      8.06     0  02:19      0.12    0.01    0.09
  HS02004802HS02004478 CONDUIT     53.31     0  02:22      0.30    0.05    0.26
  HS02004478WS02006287 CONDUIT    205.77     0  02:18      1.32    0.06    0.17
  HS02004817HS02004807 CONDUIT     39.45     0  02:23      0.11    0.02    0.51
  HS02004807HS02004802 CONDUIT     52.91     0  02:21      0.25    0.10    0.30
  YS02001759YS02001757 CONDUIT    214.33     0  03:03      0.27    0.15    1.00
  YS02001762YS02001759 CONDUIT    124.78     0  03:03      0.17    0.14    1.00
  YS02001765YS02001762 CONDUIT    131.00     0  03:03      0.23    0.12    1.00
  YS02001770YS02001767 CONDUIT    146.15     0  03:11      0.34    0.58    1.00
  YS02001774YS02001770 CONDUIT     72.34     0  03:06      0.14    0.05    1.00
  YS02001779YS02001774 CONDUIT     72.00     0  03:26      0.10    0.04    0.94
  YS02001649YS02001757 CONDUIT    329.64     0  03:06      0.42    0.20    1.00
  YS02001767YS02001765 CONDUIT    119.62     0  03:10      0.26    0.15    1.00
  YS02006561YS02001783 CONDUIT    317.01     0  02:54      1.79    0.16    0.38
  YS02001783YS02001784 CONDUIT    317.02     0  02:55      1.24    0.44    0.66
  YS02001784YS02001785 CONDUIT    318.06     0  02:55      1.32    0.74    0.73
  YS02001788YS02001790 CONDUIT    318.17     0  02:56      1.88    0.23    0.90
  YS02001790YS02001791 CONDUIT    338.14     0  03:11      2.22    0.37    1.00
  YS02001791YS02001793 CONDUIT    563.84     0  03:11      4.25    0.24    1.00
  YS02001910YS02001907 CONDUIT     98.88     0  03:01      0.50    0.06    0.74
  YS02001786YS02001788 CONDUIT    318.11     0  02:55      1.75    0.61    0.77
  YS02001915YS02001910 CONDUIT     98.78     0  03:01      0.44    0.05    0.53
  YS02001918YS02001915 CONDUIT     33.33     0  03:03      0.44    0.02    0.26
  YS02001923YS02001920 CONDUIT     30.50     0  03:02      0.45    0.01    0.14
  YS02001926YS02001923 CONDUIT     30.47     0  03:01      0.49    0.04    0.13
  YS02001929YS02001926 CONDUIT     30.48     0  03:01      0.52    0.01    0.13
  YS02001920YS02001918 CONDUIT     33.35     0  03:02      0.46    0.03    0.15
  YS02001629YS02163301 CONDUIT     98.59     0  03:19      0.13    0.12    1.00
  YS02001619YS02001622 CONDUIT     90.46     0  03:02      0.66    0.13    0.65
  YS02001622YS02001625 CONDUIT     96.91     0  03:20      0.25    0.05    0.81
  YS02001625YS02001629 CONDUIT    108.89     0  03:03      0.25    0.05    0.80
  YS02163301YS02001633 CONDUIT     86.09     0  03:12      0.11    0.08    1.00
  YS02163601YS02164001 CONDUIT    167.96     0  03:03      0.21    0.15    1.00
  YS02164001YS02001641 CONDUIT    159.08     0  03:03      0.20    0.22    1.00
  YS02001641YS02001644 CONDUIT    155.48     0  03:05      0.20    0.50    1.00
  YS02001647YS02001649 CONDUIT    236.49     0  02:59      0.31    0.12    0.99
  YS02006553YS02006556 CONDUIT    216.16     0  03:02      0.31    0.18    0.82
  YS02006556YS02006558 CONDUIT    216.38     0  03:02      0.31    0.17    0.85
  YSB6556YSB1171       CONDUIT     13.00     0  02:19      0.06    0.01    0.57
  YS02001907YS02006553 CONDUIT    216.03     0  02:57      0.26    0.25    0.93
  YS02006558YS02006561 CONDUIT    317.02     0  02:54      2.29    0.70    0.49
  YS02001633YS02163601 CONDUIT    158.69     0  03:03      0.20    0.17    1.00
  YS02001644YS02001647 CONDUIT    220.20     0  03:08      0.29    0.13    0.99
  YS02001745YS02001748 CONDUIT     72.66     0  03:01      1.40    0.03    0.25
  YS02001748YS02001751 CONDUIT    157.11     0  03:00      1.09    0.08    0.58
  YS02001751YS02001754 CONDUIT     95.69     0  02:38      0.97    0.05    0.81
  YS02001754YS02001757 CONDUIT    138.44     0  03:03      0.33    0.06    0.99
  YS02001882YS02001884 CONDUIT      4.11     0  02:08      0.06    0.00    0.46
  YS02001884YS02001887 CONDUIT     11.69     0  02:08      0.06    0.02    0.56
  YS02001890YS02001895 CONDUIT    119.57     0  02:45      0.29    0.06    0.53
  YS02001895YS02001898 CONDUIT    119.52     0  02:47      0.49    0.21    0.39
  YS02001898YS02001901 CONDUIT    119.39     0  02:49      0.33    0.08    0.47
  YS02001901YS02001904 CONDUIT    118.81     0  02:49      0.29    0.18    0.52
  YS02001904YS02001907 CONDUIT    118.99     0  02:51      0.21    0.04    0.68
  YS02001887YS02001890 CONDUIT    120.07     0  02:45      0.24    0.21    0.61
  YS02001652YS02001649 CONDUIT    145.13     0  02:56      0.33    0.07    1.00
  YS02001655YS02001652 CONDUIT    115.72     0  02:59      1.05    0.06    0.84
  YS02001658YS02001655 CONDUIT    152.88     0  02:58      1.26    0.06    0.57
  YS02001661YS02001658 CONDUIT     85.50     0  02:45      1.45    0.03    0.26
  YS02001664YS02001661 CONDUIT     85.50     0  02:45      1.11    0.03    0.15
  YSB1154YSB6556       CONDUIT     12.79     0  02:17      0.19    0.02    0.46
  YSB1174YSB1171       CONDUIT     11.94     0  02:11      0.06    0.02    0.58
  YSB1171HS02004479    CONDUIT     23.84     0  02:18      0.54    0.02    0.45
  HS02004881HS02006253 CONDUIT     38.97     0  02:18      1.66    0.01    0.10
  YS02001793JiankangQianchi CONDUIT    882.87     0  02:37     10.89    0.07    1.00
  YS02001757CaochengTiaoxuchi CONDUIT    534.57     0  03:02      1.14    0.23    0.77
  WSF200WS02003060     CONDUIT    460.07     0  02:50      1.65    0.10    0.29
  1                    CONDUIT    714.60     0  05:17      3.04    0.25    0.34
  2                    CONDUIT      0.00     0  00:00      0.00    0.00    0.00
  3                    CONDUIT    446.15     0  00:30      9.55    0.71    0.63
  4                    CONDUIT      0.00     0  00:00      0.00    0.00    0.00
  CC-Pump-1            PUMP         0.00     0  00:00              0.00
  CC-Pump-2            PUMP       200.00     0  02:23              1.00
  JK-Pump-1            PUMP       300.00     0  00:30              1.00
  JK-Pump-2            PUMP       300.00     0  00:30              1.00
  XR-Pump-1            PUMP        95.00     0  00:20              1.00
  XR-Pump-2            PUMP        95.00     0  00:00              1.00
  XR-Pump-3            PUMP        95.00     0  00:00              1.00
  XR-Pump-4            PUMP        95.00     0  00:30              1.00
  
  
  ***************************
  Flow Classification Summary
  ***************************
  
  -------------------------------------------------------------------------------------
                      Adjusted    ---------- Fraction of Time in Flow Class ---------- 
                       /Actual         Up    Down  Sub   Sup   Up    Down  Norm  Inlet 
  Conduit               Length    Dry  Dry   Dry   Crit  Crit  Crit  Crit  Ltd   Ctrl  
  -------------------------------------------------------------------------------------
  WS02003066WSF200        1.00   0.05  0.02  0.00  0.00  0.94  0.00  0.00  0.75  0.00
  WS02006287WS02006284    1.00   0.04  0.02  0.00  0.71  0.23  0.00  0.00  0.77  0.00
  WS02006284WS02006280    1.00   0.04  0.00  0.00  0.00  0.00  0.00  0.96  0.00  0.00
  WS02006280WS02006229    1.00   0.04  0.00  0.00  0.00  0.00  0.00  0.96  0.00  0.00
  WS02006229WS02006228    1.00   0.00  0.00  0.00  1.00  0.00  0.00  0.00  0.00  0.00
  WS02006256WS02006235    1.00   0.01  0.00  0.00  0.99  0.00  0.00  0.00  0.00  0.00
  WS02006253WS02006251    1.00   0.01  0.03  0.00  0.96  0.00  0.00  0.00  0.00  0.00
  WS02006252WS02006251    1.00   0.08  0.00  0.00  0.00  0.00  0.92  0.00  0.00  0.00
  WS02006251WS02006249    1.00   0.00  0.00  0.00  1.00  0.00  0.00  0.00  0.27  0.00
  WS02006249WS02006248    1.00   0.00  0.00  0.00  0.92  0.00  0.08  0.00  0.00  0.00
  WS02006248WS02006247    1.00   0.00  0.00  0.00  0.97  0.00  0.00  0.03  0.17  0.00
  WS02006247WS02006245    1.00   0.00  0.00  0.00  0.97  0.00  0.00  0.02  0.00  0.00
  WS02006245WS02006243    1.00   0.01  0.00  0.00  0.94  0.00  0.00  0.05  0.01  0.00
  WS02006243WS02006242    1.00   0.01  0.00  0.00  0.99  0.00  0.00  0.00  0.23  0.00
  WS02006242WS02006240    1.00   0.01  0.00  0.00  0.99  0.00  0.00  0.00  0.00  0.00
  WS02006240WS02006239    1.00   0.01  0.00  0.00  0.95  0.00  0.00  0.04  0.01  0.00
  WS02006239WS02006238    1.00   0.01  0.00  0.00  0.99  0.00  0.00  0.00  0.10  0.00
  WS02006238WS02006235    1.00   0.01  0.00  0.00  0.99  0.00  0.00  0.00  0.00  0.00
  WS02006235WS02006234    1.00   0.01  0.00  0.00  0.95  0.00  0.04  0.00  0.00  0.00
  WS02006234WS02006232    1.00   0.01  0.00  0.00  0.99  0.00  0.00  0.00  0.07  0.00
  WS02006232WS02006231    1.00   0.01  0.00  0.00  0.99  0.00  0.00  0.00  0.00  0.00
  WS02006231WS02006230    1.00   0.01  0.00  0.00  0.35  0.00  0.64  0.00  0.00  0.00
  WS02006230WS02006229    1.00   0.00  0.00  0.00  0.99  0.00  0.00  0.01  0.00  0.00
  WS02006228WS02006109    1.00   0.00  0.00  0.00  1.00  0.00  0.00  0.00  0.00  0.00
  WS02006116WS02004401    1.00   0.03  0.00  0.00  0.97  0.00  0.00  0.00  0.00  0.00
  WS02006115WS02006116    1.00   0.03  0.00  0.00  0.97  0.00  0.00  0.00  0.00  0.00
  WS02006113WS02006111    1.00   0.02  0.00  0.00  0.00  0.98  0.00  0.00  0.12  0.00
  WS02006112WS02006115    1.00   0.02  0.01  0.00  0.97  0.00  0.00  0.00  0.00  0.00
  WS02006111WS02006112    1.00   0.02  0.00  0.00  0.97  0.00  0.00  0.01  0.94  0.00
  WS02006110WS02006113    1.00   0.00  0.02  0.00  0.98  0.00  0.00  0.00  0.00  0.00
  WS02006109WS02006110    1.00   0.00  0.00  0.00  1.00  0.00  0.00  0.00  0.00  0.00
  WS02004411WS02004412    1.00   0.04  0.00  0.00  0.96  0.00  0.00  0.00  0.00  0.00
  WS02004401WS02004402    1.00   0.03  0.00  0.00  0.97  0.00  0.00  0.00  0.00  0.00
  WS02004413WS02003067    1.00   0.04  0.01  0.00  0.00  0.00  0.94  0.00  0.00  0.00
  WS02004412WS02004413    1.00   0.04  0.00  0.00  0.96  0.00  0.00  0.00  0.03  0.00
  WS02004410WS02004411    1.00   0.04  0.00  0.00  0.96  0.00  0.00  0.00  0.03  0.00
  WS02004409WS02004410    1.00   0.04  0.00  0.00  0.96  0.00  0.00  0.00  0.03  0.00
  WS02004407WS02004409    1.00   0.04  0.00  0.00  0.96  0.00  0.00  0.00  0.86  0.00
  WS02004406WS02004407    1.00   0.00  0.04  0.00  0.96  0.00  0.00  0.00  0.00  0.00
  WS02004405WS02004406    1.00   0.00  0.00  0.00  1.00  0.00  0.00  0.00  0.04  0.00
  WS02004404WS02004405    1.00   0.00  0.00  0.00  1.00  0.00  0.00  0.00  0.00  0.00
  WS02004403WS02004404    1.00   0.00  0.03  0.00  0.97  0.00  0.00  0.00  0.01  0.00
  WS02004402WS02004403    1.00   0.03  0.00  0.00  0.97  0.00  0.00  0.00  0.00  0.00
  WS02004139WS02001211    1.00   0.00  0.00  0.00  1.00  0.00  0.00  0.00  0.00  0.00
  WS02004138WS02004139    1.00   0.00  0.00  0.00  1.00  0.00  0.00  0.00  1.00  0.00
  WS02003067WS02003066    1.00   0.06  0.00  0.00  0.94  0.00  0.00  0.00  0.00  0.00
  WS02001213WS02003059    1.00   0.00  0.00  0.00  1.00  0.00  0.00  0.00  0.00  0.00
  WS02001212WS02001213    1.00   0.00  0.00  0.00  0.93  0.00  0.07  0.00  0.00  0.00
  WS02001211WS02001212    1.00   0.00  0.00  0.00  1.00  0.00  0.00  0.00  0.00  0.00
  WS02003072WS02003073    1.00   0.00  0.00  0.00  0.00  0.00  0.00  1.00  0.00  0.00
  WS02003069WS02003072    1.00   0.00  0.00  0.00  1.00  0.00  0.00  0.00  0.15  0.00
  WS02003060WS02003069    1.00   0.00  0.00  0.00  1.00  0.00  0.00  0.00  0.02  0.00
  WS02003059WS02003060    1.00   0.00  0.00  0.00  1.00  0.00  0.00  0.00  0.01  0.00
  HS02004901HS02004770    1.00   0.04  0.00  0.00  0.96  0.00  0.00  0.00  0.03  0.00
  HS02004876HS02004881    1.00   0.00  0.00  0.00  1.00  0.00  0.00  0.00  0.00  0.00
  HS02004870HS02004876    1.00   0.00  0.00  0.00  1.00  0.00  0.00  0.00  0.95  0.00
  HS02004842HS02004848    1.00   0.00  0.04  0.00  0.96  0.00  0.00  0.00  0.69  0.00
  HS02004837HS02004842    1.00   0.00  0.00  0.00  1.00  0.00  0.00  0.00  0.11  0.00
  HS02004830HS02004837    1.00   0.00  0.00  0.00  1.00  0.00  0.00  0.00  0.99  0.00
  HS02004824HS02004830    1.00   0.00  0.00  0.00  1.00  0.00  0.00  0.00  0.00  0.00
  HS02004817HS02004824    1.00   0.00  0.00  0.00  1.00  0.00  0.00  0.00  1.00  0.00
  HS02004770HS02004777    1.00   0.00  0.04  0.00  0.96  0.00  0.00  0.00  0.07  0.00
  HS02004799HS02004480    1.00   0.00  0.01  0.00  0.94  0.00  0.05  0.00  0.00  0.00
  HS02004792HS02004799    1.00   0.00  0.00  0.00  1.00  0.00  0.00  0.00  0.98  0.00
  HS02004788HS02004792    1.00   0.00  0.00  0.00  1.00  0.00  0.00  0.00  0.98  0.00
  HS02004785HS02004788    1.00   0.00  0.00  0.00  1.00  0.00  0.00  0.00  0.00  0.00
  HS02004777HS02004785    1.00   0.00  0.00  0.00  1.00  0.00  0.00  0.00  0.21  0.00
  HS02004480HS02004478    1.00   0.05  0.00  0.00  0.75  0.00  0.00  0.20  0.00  0.00
  HS02004479HS02004480    1.00   0.01  0.00  0.00  0.99  0.00  0.00  0.00  0.16  0.00
  HS02004862HS02004870    1.00   0.00  0.00  0.00  1.00  0.00  0.00  0.00  0.05  0.00
  HS02004848HS02004852    1.00   0.04  0.00  0.00  0.96  0.00  0.00  0.00  0.71  0.00
  HS02004856HS02004862    1.00   0.00  0.07  0.00  0.93  0.00  0.00  0.00  0.74  0.00
  HS02004852HS02004856    1.00   0.04  0.01  0.00  0.95  0.00  0.00  0.00  0.83  0.00
  HS02004802HS02004478    1.00   0.04  0.01  0.00  0.95  0.00  0.00  0.00  0.01  0.00
  HS02004478WS02006287    1.00   0.05  0.00  0.00  0.89  0.06  0.00  0.00  0.77  0.00
  HS02004817HS02004807    1.00   0.00  0.04  0.00  0.96  0.00  0.00  0.00  0.00  0.00
  HS02004807HS02004802    1.00   0.04  0.00  0.00  0.95  0.00  0.00  0.00  0.01  0.00
  YS02001759YS02001757    1.00   0.00  0.00  0.00  1.00  0.00  0.00  0.00  0.17  0.00
  YS02001762YS02001759    1.00   0.00  0.00  0.00  1.00  0.00  0.00  0.00  0.05  0.00
  YS02001765YS02001762    1.00   0.00  0.00  0.00  1.00  0.00  0.00  0.00  0.22  0.00
  YS02001770YS02001767    1.00   0.00  0.00  0.00  1.00  0.00  0.00  0.00  0.00  0.00
  YS02001774YS02001770    1.00   0.00  0.05  0.00  0.95  0.00  0.00  0.00  0.06  0.00
  YS02001779YS02001774    1.00   0.00  0.00  0.00  1.00  0.00  0.00  0.00  0.26  0.00
  YS02001649YS02001757    1.00   0.00  0.00  0.00  1.00  0.00  0.00  0.00  0.19  0.00
  YS02001767YS02001765    1.00   0.00  0.00  0.00  1.00  0.00  0.00  0.00  0.01  0.00
  YS02006561YS02001783    1.00   0.07  0.00  0.00  0.27  0.66  0.00  0.00  0.73  0.00
  YS02001783YS02001784    1.00   0.00  0.07  0.00  0.93  0.00  0.00  0.00  0.00  0.00
  YS02001784YS02001785    1.00   0.00  0.00  0.00  1.00  0.00  0.00  0.00  0.25  0.00
  YS02001788YS02001790    1.00   0.00  0.00  0.00  0.37  0.63  0.00  0.00  0.55  0.00
  YS02001790YS02001791    1.00   0.00  0.00  0.00  0.35  0.65  0.00  0.00  0.45  0.00
  YS02001791YS02001793    1.00   0.00  0.00  0.00  0.51  0.49  0.00  0.00  0.11  0.00
  YS02001910YS02001907    1.00   0.00  0.00  0.00  0.99  0.00  0.00  0.00  0.13  0.00
  YS02001786YS02001788    1.00   0.00  0.00  0.00  0.36  0.64  0.00  0.00  0.00  0.00
  YS02001915YS02001910    1.00   0.00  0.00  0.00  1.00  0.00  0.00  0.00  0.24  0.00
  YS02001918YS02001915    1.00   0.00  0.00  0.00  1.00  0.00  0.00  0.00  0.81  0.00
  YS02001923YS02001920    1.00   0.00  0.00  0.00  1.00  0.00  0.00  0.00  1.00  0.00
  YS02001926YS02001923    1.00   0.00  0.03  0.00  0.00  0.00  0.97  0.00  0.00  0.00
  YS02001929YS02001926    1.00   0.00  0.04  0.00  0.96  0.00  0.00  0.00  0.87  0.00
  YS02001920YS02001918    1.00   0.00  0.00  0.00  1.00  0.00  0.00  0.00  0.00  0.00
  YS02001629YS02163301    1.00   0.06  0.00  0.00  0.94  0.00  0.00  0.00  0.00  0.00
  YS02001619YS02001622    1.00   0.04  0.00  0.00  0.96  0.00  0.00  0.00  0.00  0.00
  YS02001622YS02001625    1.00   0.04  0.00  0.00  0.96  0.00  0.00  0.00  0.13  0.00
  YS02001625YS02001629    1.00   0.04  0.03  0.00  0.92  0.00  0.01  0.00  0.00  0.00
  YS02163301YS02001633    1.00   0.00  0.06  0.00  0.94  0.00  0.00  0.00  0.00  0.00
  YS02163601YS02164001    1.00   0.00  0.03  0.00  0.97  0.00  0.00  0.00  0.00  0.00
  YS02164001YS02001641    1.00   0.00  0.03  0.00  0.97  0.00  0.00  0.00  0.07  0.00
  YS02001641YS02001644    1.00   0.00  0.00  0.00  1.00  0.00  0.00  0.00  0.00  0.00
  YS02001647YS02001649    1.00   0.00  0.07  0.00  0.93  0.00  0.00  0.00  0.01  0.00
  YS02006553YS02006556    1.00   0.00  0.00  0.00  1.00  0.00  0.00  0.00  0.03  0.00
  YS02006556YS02006558    1.00   0.00  0.00  0.00  1.00  0.00  0.00  0.00  0.00  0.00
  YSB6556YSB1171          1.00   0.01  0.03  0.00  0.96  0.00  0.00  0.00  0.00  0.00
  YS02001907YS02006553    1.00   0.00  0.00  0.00  1.00  0.00  0.00  0.00  0.00  0.00
  YS02006558YS02006561    1.00   0.07  0.00  0.00  0.00  0.93  0.00  0.00  0.72  0.00
  YS02001633YS02163601    1.00   0.00  0.00  0.00  1.00  0.00  0.00  0.00  0.20  0.00
  YS02001644YS02001647    1.00   0.00  0.07  0.00  0.93  0.00  0.00  0.00  0.00  0.00
  YS02001745YS02001748    1.00   0.00  0.00  0.00  0.87  0.02  0.00  0.12  0.67  0.00
  YS02001748YS02001751    1.00   0.00  0.00  0.00  0.98  0.02  0.00  0.00  0.24  0.00
  YS02001751YS02001754    1.00   0.00  0.00  0.00  0.93  0.00  0.00  0.07  0.02  0.00
  YS02001754YS02001757    1.00   0.00  0.00  0.00  1.00  0.00  0.00  0.00  0.26  0.00
  YS02001882YS02001884    1.00   0.06  0.00  0.00  0.94  0.00  0.00  0.00  0.00  0.00
  YS02001884YS02001887    1.00   0.02  0.01  0.00  0.96  0.00  0.00  0.00  0.00  0.00
  YS02001890YS02001895    1.00   0.00  0.06  0.00  0.94  0.00  0.00  0.00  0.00  0.00
  YS02001895YS02001898    1.00   0.06  0.00  0.00  0.93  0.00  0.01  0.00  0.00  0.00
  YS02001898YS02001901    1.00   0.06  0.00  0.00  0.94  0.00  0.00  0.00  0.02  0.00
  YS02001901YS02001904    1.00   0.06  0.00  0.00  0.94  0.00  0.00  0.00  0.00  0.00
  YS02001904YS02001907    1.00   0.00  0.06  0.00  0.94  0.00  0.00  0.00  0.00  0.00
  YS02001887YS02001890    1.00   0.00  0.00  0.00  0.99  0.00  0.01  0.00  0.00  0.00
  YS02001652YS02001649    1.00   0.00  0.00  0.00  1.00  0.00  0.00  0.00  0.26  0.00
  YS02001655YS02001652    1.00   0.00  0.00  0.00  0.93  0.00  0.00  0.07  0.02  0.00
  YS02001658YS02001655    1.00   0.00  0.05  0.00  0.92  0.02  0.00  0.00  0.11  0.00
  YS02001661YS02001658    1.00   0.05  0.00  0.00  0.86  0.08  0.00  0.00  0.57  0.00
  YS02001664YS02001661    1.00   0.04  0.00  0.00  0.78  0.18  0.00  0.00  0.86  0.00
  YSB1154YSB6556          1.00   0.04  0.00  0.00  0.96  0.00  0.00  0.00  0.02  0.00
  YSB1174YSB1171          1.00   0.01  0.02  0.00  0.96  0.00  0.00  0.00  0.00  0.00
  YSB1171HS02004479       1.00   0.01  0.00  0.00  0.98  0.00  0.00  0.01  0.13  0.00
  HS02004881HS02006253    1.00   0.01  0.00  0.00  0.91  0.00  0.00  0.08  0.70  0.00
  YS02001793JiankangQianchi    1.00   0.00  0.00  0.00  0.82  0.18  0.00  0.00  0.37  0.00
  YS02001757CaochengTiaoxuchi    1.00   0.00  0.08  0.00  0.92  0.00  0.00  0.00  0.00  0.00
  WSF200WS02003060        1.00   0.00  0.05  0.00  0.78  0.18  0.00  0.00  0.42  0.00
  1                       1.00   0.00  0.00  0.00  0.00  1.00  0.00  0.00  0.29  0.00
  2                       1.00   1.00  0.00  0.00  0.00  0.00  0.00  0.00  0.00  0.00
  3                       1.00   0.55  0.00  0.00  0.00  0.45  0.00  0.00  0.00  0.00
  4                       1.00   1.00  0.00  0.00  0.00  0.00  0.00  0.00  0.00  0.00
  
  
  *************************
  Conduit Surcharge Summary
  *************************
  
  ----------------------------------------------------------------------------
                                                           Hours        Hours 
                         --------- Hours Full --------   Above Full   Capacity
  Conduit                Both Ends  Upstream  Dnstream   Normal Flow   Limited
  ----------------------------------------------------------------------------
  WS02006229WS02006228        0.66      0.72      0.66      2.70         0.66
  WS02006256WS02006235        5.50      5.51      6.62      2.69         0.01
  WS02006249WS02006248        0.01      0.01      0.01      5.45         0.01
  WS02006247WS02006245        0.01      0.01      0.01      5.46         0.01
  WS02006235WS02006234        0.01      0.01      0.01      5.52         0.01
  WS02006234WS02006232        0.01      0.01      0.22      0.01         0.01
  WS02006232WS02006231        0.01      0.01      0.22      0.01         0.01
  WS02006231WS02006230        0.01      0.01      0.01      5.52         0.01
  WS02006230WS02006229        1.20      2.65      1.20      5.64         1.20
  WS02006228WS02006109        0.69      0.89      0.69      2.98         0.69
  WS02006111WS02006112        0.01      0.01      2.73      0.01         0.01
  WS02006110WS02006113        0.01      0.01      0.78      0.01         0.01
  WS02006109WS02006110        0.01      0.01      0.89      0.01         0.01
  WS02004404WS02004405        0.01      0.01      0.01      5.60         0.01
  WS02003072WS02003073        0.01      0.01      0.01      5.51         0.01
  YS02001759YS02001757        5.13      5.13      5.30      0.01         0.01
  YS02001762YS02001759        4.83      4.83      5.13      0.01         0.01
  YS02001765YS02001762        3.70      3.70      4.83      0.01         0.01
  YS02001770YS02001767        2.63      2.65      2.78      0.01         0.23
  YS02001774YS02001770        1.95      1.95      4.51      0.01         0.01
  YS02001779YS02001774        0.01      0.01      4.51      0.01         0.01
  YS02001649YS02001757        4.96      4.96      5.30      0.01         0.01
  YS02001767YS02001765        2.78      2.78      3.70      0.01         0.01
  YS02001788YS02001790        0.01      0.01      1.58      0.01         0.01
  YS02001790YS02001791        1.58      1.58      1.68      0.01         0.01
  YS02001791YS02001793        1.68      1.68      2.57      0.01         0.01
  YS02001629YS02163301        1.13      1.13      2.16      0.01         0.01
  YS02163301YS02001633        2.15      2.15      3.72      0.01         0.01
  YS02163601YS02164001        3.51      3.51      4.88      0.01         0.01
  YS02164001YS02001641        3.51      3.51      4.26      0.01         0.01
  YS02001641YS02001644        4.23      4.26      4.37      0.01         0.45
  YS02001647YS02001649        0.01      0.01      4.96      0.01         0.01
  YS02001633YS02163601        3.10      3.10      4.88      0.01         0.01
  YS02001644YS02001647        0.01      0.01      4.37      0.01         0.01
  YS02001754YS02001757        0.01      0.01      5.30      0.01         0.01
  YS02001652YS02001649        0.01      0.01      4.96      0.01         0.01
  YS02001793JiankangQianchi        2.02      2.02      4.89      0.01         0.01
  YS02001757CaochengTiaoxuchi        0.01      0.01      5.30      0.01         0.01
  
  
  ***************
  Pumping Summary
  ***************
  
  ---------------------------------------------------------------------------------------------------------
                                                  Min       Avg       Max     Total     Power    % Time Off
                        Percent   Number of      Flow      Flow      Flow    Volume     Usage    Pump Curve
  Pump                 Utilized   Start-Ups       LPS       LPS       LPS  10^6 ltr     Kw-hr    Low   High
  ---------------------------------------------------------------------------------------------------------
  CC-Pump-1                0.00           0      0.00      0.00      0.00     0.000      0.00    0.0    0.0
  CC-Pump-2               70.63           1      0.00    199.12    200.00     3.952     12.65    0.0   18.3
  JK-Pump-1               46.80           2      0.00    227.44    300.00     2.388     26.67    0.0    0.0
  JK-Pump-2               12.76           1      0.00    100.95    300.00     0.094      1.48    0.0    0.0
  XR-Pump-1               97.86           1      0.00     94.82     95.00     2.593     46.84    0.0    0.0
  XR-Pump-2               61.70           3      0.00     88.06     95.00     1.539     30.98    0.0    0.0
  XR-Pump-3               70.21           2      0.00     89.22     95.00     1.767     34.48    0.0    0.0
  XR-Pump-4               95.73           1      0.00     94.29     95.00     2.536     46.18    0.0    0.0
  

  Analysis begun on:  Thu Jan  6 00:41:26 2022
  Analysis ended on:  Thu Jan  6 00:41:28 2022
  Total elapsed time: 00:00:02