
  EPA STORM WATER MANAGEMENT MODEL - VERSION 5.1 (Build 5.3.0.dev0)
  --------------------------------------------------------------

  WARNING 04: minimum elevation drop used for Conduit WS02004404WS02004405
  WARNING 03: negative offset ignored for Link YS02001904YS02001907
  
  *********************************************************
  NOTE: The summary statistics displayed in this report are
  based on results found at every computational time step,  
  not just on results from each reporting time step.
  *********************************************************
  
  ****************
  Analysis Options
  ****************
  Flow Units ............... LPS
  Process Models:
    Rainfall/Runoff ........ YES
    RDII ................... NO
    Snowmelt ............... NO
    Groundwater ............ NO
    Flow Routing ........... YES
    Ponding Allowed ........ NO
    Water Quality .......... NO
  Infiltration Method ...... HORTON
  Flow Routing Method ...... DYNWAVE
  Surcharge Method ......... EXTRAN
  Starting Date ............ 08/28/2015 08:00:00
  Ending Date .............. 08/28/2015 15:50:00
  Antecedent Dry Days ...... 8.0
  Report Time Step ......... 00:01:00
  Wet Time Step ............ 00:01:00
  Dry Time Step ............ 00:01:00
  Routing Time Step ........ 5.00 sec
  Variable Time Step ....... YES
  Maximum Trials ........... 8
  Number of Threads ........ 4
  Head Tolerance ........... 0.001500 m
  
  
  **************************        Volume         Depth
  Runoff Quantity Continuity     hectare-m            mm
  **************************     ---------       -------
  Total Precipitation ......         5.493        12.027
  Evaporation Loss .........         0.000         0.000
  Infiltration Loss ........         1.412         3.091
  Surface Runoff ...........         3.074         6.729
  Final Storage ............         1.009         2.209
  Continuity Error (%) .....        -0.014
  
  
  **************************        Volume        Volume
  Flow Routing Continuity        hectare-m      10^6 ltr
  **************************     ---------     ---------
  Dry Weather Inflow .......         0.616         6.165
  Wet Weather Inflow .......         3.072        30.724
  Groundwater Inflow .......         0.000         0.000
  RDII Inflow ..............         0.000         0.000
  External Inflow ..........         0.102         1.024
  External Outflow .........         1.810        18.097
  Flooding Loss ............         1.416        14.162
  Evaporation Loss .........         0.000         0.000
  Exfiltration Loss ........         0.000         0.000
  Initial Stored Volume ....         0.076         0.761
  Final Stored Volume ......         0.646         6.463
  Continuity Error (%) .....        -0.129
  
  
  *************************
  Highest Continuity Errors
  *************************
  Node HS02004842 (16.38%)
  Node YS02001884 (11.37%)
  Node YSB1171 (3.16%)
  Node HS02004817 (3.01%)
  Node YS02001774 (2.89%)
  
  
  ***************************
  Time-Step Critical Elements
  ***************************
  Link WS02006252WS02006251 (68.86%)
  Link 3 (25.49%)
  Link WS02006238WS02006235 (1.14%)
  
  
  ********************************
  Highest Flow Instability Indexes
  ********************************
  Link YS02163301YS02001633 (40)
  Link YS02163601YS02164001 (40)
  Link YS02001629YS02163301 (40)
  Link YS02001619YS02001622 (39)
  Link WS02006113WS02006111 (38)
  
  
  *************************
  Routing Time Step Summary
  *************************
  Minimum Time Step           :     0.07 sec
  Average Time Step           :     0.79 sec
  Maximum Time Step           :     5.00 sec
  Percent in Steady State     :    -0.00
  Average Iterations per Step :     4.56
  Percent Not Converging      :    20.89
  
  
  ***************************
  Subcatchment Runoff Summary
  ***************************
  
  ------------------------------------------------------------------------------------------------------------------------------
                            Total      Total      Total      Total     Imperv       Perv      Total       Total     Peak  Runoff
                           Precip      Runon       Evap      Infil     Runoff     Runoff     Runoff      Runoff   Runoff   Coeff
  Subcatchment                 mm         mm         mm         mm         mm         mm         mm    10^6 ltr      LPS
  ------------------------------------------------------------------------------------------------------------------------------
  sub0                      12.03       0.00       0.00       0.84       9.92       0.00       9.92        0.01     2.03   0.825
  sub1                      12.03       0.00       0.00       1.32       9.45       0.00       9.45        0.06    13.40   0.786
  sub2                      12.03       0.00       0.00       4.45       6.67       0.00       6.67        0.06    12.40   0.555
  sub3                      12.03       0.00       0.00       4.45       6.63       0.00       6.63        0.15    27.80   0.552
  sub4                      12.03       0.00       0.00       1.32       9.30       0.00       9.30        0.19    33.44   0.773
  sub5                      12.03       0.00       0.00       0.84       9.87       0.00       9.87        0.11    23.84   0.821
  sub7                      12.03       0.00       0.00       1.08       9.69       0.00       9.69        0.03     7.67   0.806
  sub8                      12.03       0.00       0.00       1.08       9.68       0.00       9.68        0.06    14.05   0.805
  sub9                      12.03       0.00       0.00       1.08       9.68       0.00       9.68        0.05    10.50   0.805
  sub10                     12.03       0.00       0.00       0.96       9.77       0.00       9.77        0.11    23.44   0.813
  sub11                     12.03       0.00       0.00       0.96       9.79       0.00       9.79        0.11    26.14   0.814
  sub12                     12.03       0.00       0.00       1.56       9.28       0.00       9.28        0.08    19.99   0.771
  sub14                     12.03       0.00       0.00       1.08       9.68       0.00       9.68        0.09    20.64   0.805
  sub15                     12.03       0.00       0.00       3.61       7.44       0.00       7.44        0.13    28.31   0.619
  sub16                     12.03       0.00       0.00       3.97       7.14       0.00       7.14        0.07    18.12   0.594
  sub17                     12.03       0.00       0.00       3.85       7.24       0.00       7.24        0.06    14.90   0.602
  sub22                     12.03       0.00       0.00       5.17       6.07       0.00       6.07        0.38    88.71   0.504
  sub23                     12.03       0.00       0.00       4.45       6.71       0.00       6.71        0.32    74.74   0.558
  sub60                     12.03       0.00       0.00       1.44       7.74       0.00       7.74        2.35   221.95   0.644
  sub61                     12.03       0.00       0.00       2.04       7.85       0.00       7.85        2.42   262.11   0.653
  sub62                     12.03       0.00       0.00       0.96       8.54       0.00       8.54        2.63   273.68   0.710
  sub63                     12.03       0.00       0.00       3.49       6.87       0.00       6.87        2.08   239.63   0.571
  sub64                     12.03       0.00       0.00       1.80       7.43       0.00       7.43        2.26   211.47   0.618
  sub65                     12.03       0.00       0.00       1.56       7.55       0.00       7.55        2.32   215.23   0.628
  sub66                     12.03       0.00       0.00       3.49       6.37       0.00       6.37        1.95   191.04   0.530
  sub67                     12.03       0.00       0.00       0.96       9.00       0.00       9.00        2.78   332.67   0.749
  sub68                     12.03       0.00       0.00       1.68       8.26       0.00       8.26        2.54   285.76   0.687
  sub69                     12.03       0.00       0.00       1.80       8.55       0.00       8.55        2.00   265.64   0.711
  sub70                     12.03       8.73       0.00       6.95      11.44       0.11      11.55        2.64   261.84   0.556
  sub71                     12.03       0.00       0.00       0.96       8.33       0.00       8.33        1.97   195.24   0.692
  sub72                     12.03       0.00       0.00       0.84       6.67       0.00       6.67        1.36   105.11   0.555
  sub73                     12.03      11.24       0.00       7.83      12.57       0.08      12.65        2.97   255.46   0.544
  sub74                     12.03       0.00       0.00       9.02       2.55       0.00       2.55        1.02   143.98   0.212
  
  
  ******************
  Node Depth Summary
  ******************
  
  ---------------------------------------------------------------------------------
                                 Average  Maximum  Maximum  Time of Max    Reported
                                   Depth    Depth      HGL   Occurrence   Max Depth
  Node                 Type       Meters   Meters   Meters  days hr:min      Meters
  ---------------------------------------------------------------------------------
  WS02001211           JUNCTION     0.62     0.66     5.50     0  01:59        0.66
  WS02001212           JUNCTION     0.36     0.40     5.47     0  01:59        0.40
  WS02001213           JUNCTION     0.59     0.68     5.44     0  01:56        0.68
  WS02003069           JUNCTION     0.43     0.55     5.14     0  01:58        0.55
  WS02003072           JUNCTION     0.50     0.61     4.98     0  01:58        0.61
  WS02003073           JUNCTION     0.30     0.38     4.44     0  01:59        0.38
  WS02003060           JUNCTION     0.39     0.49     5.42     0  01:57        0.49
  WS02003066           JUNCTION     0.24     0.32     5.88     0  01:52        0.32
  WS02003059           JUNCTION     0.66     0.75     5.44     0  01:57        0.75
  WS02003067           JUNCTION     0.60     0.74     6.06     0  01:52        0.74
  WS02004401           JUNCTION     0.71     0.96     6.96     0  01:49        0.96
  WS02004402           JUNCTION     0.74     0.98     6.94     0  01:49        0.97
  WS02004403           JUNCTION     0.76     0.99     6.92     0  01:49        0.98
  WS02004404           JUNCTION     0.83     1.05     6.90     0  01:49        1.05
  WS02004406           JUNCTION     0.83     1.02     6.85     0  01:49        1.02
  WS02004409           JUNCTION     0.53     0.74     6.51     0  01:53        0.74
  WS02004410           JUNCTION     0.54     0.75     6.47     0  01:53        0.75
  WS02004411           JUNCTION     0.56     0.76     6.44     0  01:52        0.76
  WS02004412           JUNCTION     0.57     0.76     6.40     0  01:52        0.76
  WS02004413           JUNCTION     0.73     0.91     6.38     0  01:52        0.91
  WS02004405           JUNCTION     0.83     1.04     6.89     0  01:49        1.03
  WS02006109           JUNCTION     0.79     1.10     7.71     0  01:46        1.08
  WS02006110           JUNCTION     0.78     1.01     7.60     0  01:46        1.00
  WS02006111           JUNCTION     0.23     0.34     7.05     0  01:48        0.33
  WS02006112           JUNCTION     0.88     1.20     7.08     0  02:09        1.17
  WS02006113           JUNCTION     0.36     0.50     7.40     0  01:46        0.50
  WS02006115           JUNCTION     0.60     0.87     7.01     0  01:48        0.87
  WS02006116           JUNCTION     0.68     0.95     6.99     0  01:49        0.95
  WS02006230           JUNCTION     0.77     1.15     7.89     0  01:46        1.15
  WS02006231           JUNCTION     0.52     0.82     7.94     0  01:46        0.80
  WS02006232           JUNCTION     0.65     0.93     7.97     0  01:46        0.91
  WS02006234           JUNCTION     0.57     0.84     8.00     0  01:45        0.83
  WS02006235           JUNCTION     0.60     0.85     8.02     0  01:46        0.85
  WS02006238           JUNCTION     0.63     0.88     8.02     0  01:46        0.87
  WS02006240           JUNCTION     0.52     0.77     8.06     0  01:45        0.77
  WS02006242           JUNCTION     0.57     0.84     8.11     0  01:45        0.83
  WS02006243           JUNCTION     0.45     0.69     8.11     0  01:45        0.69
  WS02006245           JUNCTION     0.42     0.65     8.13     0  01:46        0.65
  WS02006247           JUNCTION     0.44     0.65     8.15     0  01:45        0.65
  WS02006248           JUNCTION     0.38     0.57     8.16     0  01:46        0.57
  WS02006249           JUNCTION     0.41     0.57     8.17     0  01:46        0.57
  WS02006239           JUNCTION     0.58     0.85     8.05     0  01:45        0.83
  WS02006251           JUNCTION     0.40     0.55     8.22     0  01:47        0.55
  WS02006252           JUNCTION     0.33     0.35     8.59     0  01:35        0.35
  WS02006253           JUNCTION     0.42     0.58     8.22     0  01:47        0.57
  WS02006256           JUNCTION     1.07     1.15     8.09     0  00:00        1.13
  WS02004138           JUNCTION     0.14     0.14     7.39     0  00:00        0.14
  WS02004407           JUNCTION     0.24     0.33     6.64     0  01:49        0.33
  WS02006228           JUNCTION     0.80     1.15     7.80     0  01:44        1.14
  WS02006229           JUNCTION     0.77     1.16     7.85     0  01:46        1.16
  WS02006280           JUNCTION     0.07     0.19     8.46     0  01:42        0.19
  WS02006284           JUNCTION     0.37     0.54     8.94     0  01:42        0.54
  WS02006287           JUNCTION     0.10     0.28     9.23     0  01:42        0.28
  WSF200               JUNCTION     0.24     0.34     5.57     0  01:55        0.34
  HS02004901           JUNCTION     0.13     0.28    10.10     0  01:39        0.28
  HS02004881           JUNCTION     0.01     0.03     9.06     0  01:43        0.03
  HS02004876           JUNCTION     0.05     0.12     9.15     0  01:43        0.12
  HS02004870           JUNCTION     0.02     0.06     9.35     0  01:43        0.06
  HS02004862           JUNCTION     0.02     0.07     9.45     0  01:44        0.07
  HS02004856           JUNCTION     0.08     0.12     9.55     0  01:44        0.12
  HS02004852           JUNCTION     0.01     0.04     9.56     0  01:52        0.04
  HS02004848           JUNCTION     0.01     0.04     9.64     0  01:51        0.04
  HS02004842           JUNCTION     0.33     0.37     9.64     0  01:51        0.37
  HS02004837           JUNCTION     0.03     0.06     9.64     0  01:51        0.06
  HS02004830           JUNCTION     0.04     0.08     9.55     0  01:45        0.08
  HS02004824           JUNCTION     0.02     0.06     9.46     0  01:54        0.06
  HS02004817           JUNCTION     0.44     0.59     9.43     0  01:43        0.59
  HS02004807           JUNCTION     0.13     0.26     9.43     0  01:43        0.26
  HS02004802           JUNCTION     0.17     0.30     9.42     0  01:43        0.29
  HS02004799           JUNCTION     0.12     0.33     9.54     0  01:40        0.33
  HS02004792           JUNCTION     0.04     0.14     9.66     0  01:40        0.14
  HS02004788           JUNCTION     0.03     0.10    10.00     0  01:40        0.10
  HS02004785           JUNCTION     0.05     0.17    10.07     0  01:40        0.17
  HS02004777           JUNCTION     0.15     0.30    10.10     0  01:39        0.30
  HS02004770           JUNCTION     0.12     0.27    10.10     0  01:39        0.27
  HS02004480           JUNCTION     0.09     0.27     9.51     0  01:41        0.27
  HS02004479           JUNCTION     0.12     0.30     9.51     0  01:40        0.30
  HS02004478           JUNCTION     0.06     0.18     9.41     0  01:42        0.18
  YS02001745           JUNCTION     0.73     0.88     8.39     0  02:56        0.87
  YS02001748           JUNCTION     1.13     2.27     9.35     0  02:07        1.32
  YS02001751           JUNCTION     1.32     2.20     9.08     0  02:00        1.53
  YS02001754           JUNCTION     1.57     2.20     8.81     0  02:07        1.81
  YS02001762           JUNCTION     1.77     2.03     8.43     0  02:38        2.02
  YS02001765           JUNCTION     1.73     1.98     8.43     0  03:08        1.97
  YS02001767           JUNCTION     1.69     1.93     8.42     0  02:57        1.92
  YS02001770           JUNCTION     1.69     1.92     8.41     0  02:09        1.90
  YS02001774           JUNCTION     1.75     1.99     8.41     0  02:09        1.96
  YS02001779           JUNCTION     1.50     1.68     8.37     0  02:03        1.68
  YS02001882           JUNCTION     0.51     1.38     8.10     0  02:30        1.36
  YS02001884           JUNCTION     0.61     1.48     8.10     0  02:30        1.46
  YS02001759           JUNCTION     1.81     2.07     8.43     0  02:42        2.06
  YS02001887           JUNCTION     0.68     1.55     8.09     0  02:30        1.53
  YS02001890           JUNCTION     0.71     1.58     8.09     0  02:29        1.56
  YS02001898           JUNCTION     0.48     1.34     8.08     0  02:30        1.32
  YS02001901           JUNCTION     0.60     1.46     8.07     0  02:30        1.45
  YS02001904           JUNCTION     0.58     1.43     8.06     0  02:30        1.42
  YS02001907           JUNCTION     0.91     1.77     8.06     0  02:31        1.75
  YS02001910           JUNCTION     0.70     1.56     8.07     0  02:30        1.54
  YS02001915           JUNCTION     0.50     1.35     8.07     0  02:30        1.34
  YS02001918           JUNCTION     0.25     1.00     8.06     0  02:30        0.99
  YS02001619           JUNCTION     1.29     1.61     8.54     0  02:03        1.47
  YS02001629           JUNCTION     1.64     1.85     8.40     0  02:04        1.85
  YS02001641           JUNCTION     1.74     1.97     8.41     0  02:09        1.93
  YS02001644           JUNCTION     1.74     1.92     8.35     0  02:09        1.92
  YS02001652           JUNCTION     1.59     2.16     8.76     0  02:35        2.06
  YS02001655           JUNCTION     1.35     2.20     9.05     0  02:29        1.92
  YS02001920           JUNCTION     0.35     1.05     8.06     0  02:30        1.05
  YS02001923           JUNCTION     0.19     0.80     8.06     0  02:29        0.80
  YS02001926           JUNCTION     0.24     0.62     8.06     0  02:30        0.62
  YS02001929           JUNCTION     0.12     0.37     8.06     0  02:31        0.36
  YS02001658           JUNCTION     1.07     2.26     9.41     0  02:29        1.77
  YS02001661           JUNCTION     0.84     2.40     9.80     0  02:29        1.76
  YS02001664           JUNCTION     0.37     0.58     8.50     0  02:22        0.57
  YS02001622           JUNCTION     1.31     1.62     8.52     0  02:03        1.49
  YS02001633           JUNCTION     1.73     1.99     8.45     0  02:09        1.94
  YS02001649           JUNCTION     1.78     2.05     8.44     0  02:23        2.05
  YS02001757           JUNCTION     1.90     2.19     8.45     0  02:07        2.17
  YS02001895           JUNCTION     0.48     1.34     8.09     0  02:30        1.32
  YS02001625           JUNCTION     1.59     1.78     8.38     0  02:03        1.78
  YS02163301           JUNCTION     1.67     1.91     8.43     0  02:09        1.87
  YS02163601           JUNCTION     1.78     2.06     8.46     0  02:09        1.98
  YS02164001           JUNCTION     1.72     1.99     8.44     0  02:09        1.91
  YS02001647           JUNCTION     1.57     1.81     8.42     0  02:29        1.80
  YSB1154              JUNCTION     0.26     0.45     9.51     0  01:40        0.45
  YSB6556              JUNCTION     0.16     0.34     9.51     0  01:40        0.34
  YSB1174              JUNCTION     0.21     0.40     9.51     0  01:40        0.40
  YSB1171              JUNCTION     0.41     0.61     9.51     0  01:40        0.61
  YS02006553           JUNCTION     0.91     1.76     8.05     0  02:30        1.74
  YS02006561           JUNCTION     0.30     0.93     7.59     0  02:30        0.92
  YS02006556           JUNCTION     0.88     1.71     8.02     0  02:30        1.70
  YS02006558           JUNCTION     0.92     1.75     8.02     0  02:30        1.74
  YS02001783           JUNCTION     0.54     1.50     7.64     0  02:00        1.33
  YS02001784           JUNCTION     0.56     1.84     7.91     0  01:59        1.41
  YS02001786           JUNCTION     0.51     1.89     7.92     0  01:59        1.44
  YS02001788           JUNCTION     0.46     1.95     7.93     0  01:59        1.40
  YS02001790           JUNCTION     0.61     1.96     7.60     0  01:58        1.59
  YS02001791           JUNCTION     0.61     1.63     7.10     0  01:59        1.47
  YS02001793           JUNCTION     0.89     1.97     6.80     0  02:00        1.90
  WS02004139           JUNCTION     0.56     0.60     5.51     0  01:59        0.60
  WSC                  OUTFALL      0.30     0.38     1.05     0  01:59        0.38
  3                    OUTFALL      0.09     0.13     6.13     0  01:46        0.13
  4                    OUTFALL      0.01     0.07     7.07     0  01:46        0.07
  5                    OUTFALL      0.00     0.00     5.00     0  00:00        0.00
  JK-storage           STORAGE      3.20     5.80     6.60     0  01:59        5.80
  CC-storage           STORAGE      1.14     1.37     8.37     0  02:54        1.37
  XR-storage           STORAGE      7.55     7.72     5.72     0  01:48        7.72
  
  
  *******************
  Node Inflow Summary
  *******************
  
  -------------------------------------------------------------------------------------------------
                                  Maximum  Maximum                  Lateral       Total        Flow
                                  Lateral    Total  Time of Max      Inflow      Inflow     Balance
                                   Inflow   Inflow   Occurrence      Volume      Volume       Error
  Node                 Type           LPS      LPS  days hr:min    10^6 ltr    10^6 ltr     Percent
  -------------------------------------------------------------------------------------------------
  WS02001211           JUNCTION      7.35   198.34     0  02:13       0.207        5.54       0.558
  WS02001212           JUNCTION      0.00   199.12     0  02:12           0        5.51       0.295
  WS02001213           JUNCTION      0.00   199.73     0  02:12           0        5.49       0.377
  WS02003069           JUNCTION      0.32   858.58     0  01:57     0.00902        14.6       0.187
  WS02003072           JUNCTION      0.00   858.49     0  01:58           0        14.6       0.233
  WS02003073           JUNCTION      1.82   860.27     0  01:59      0.0514        14.6       0.258
  WS02003060           JUNCTION     16.53   858.48     0  01:56       0.466        14.6       0.177
  WS02003066           JUNCTION      0.00   649.14     0  01:52           0        8.75       0.051
  WS02003059           JUNCTION      0.00   200.68     0  02:11           0        5.47       0.646
  WS02003067           JUNCTION      0.00   649.06     0  01:52           0        8.76       0.107
  WS02004401           JUNCTION      0.00   655.34     0  01:49           0           9       0.241
  WS02004402           JUNCTION      0.00   657.43     0  01:49           0        8.97       0.227
  WS02004403           JUNCTION      0.00   655.10     0  01:49           0        8.95       0.206
  WS02004404           JUNCTION      0.16   652.63     0  01:49     0.00457        8.94       0.156
  WS02004406           JUNCTION      0.00   652.36     0  01:49           0        8.91       0.379
  WS02004409           JUNCTION      0.00   651.82     0  01:49           0        8.87       0.186
  WS02004410           JUNCTION      0.00   650.05     0  01:50           0        8.85       0.211
  WS02004411           JUNCTION      0.00   649.46     0  01:51           0        8.83       0.216
  WS02004412           JUNCTION      0.00   649.12     0  01:51           0        8.81       0.233
  WS02004413           JUNCTION      0.00   649.31     0  01:52           0        8.79       0.344
  WS02004405           JUNCTION      0.04   652.34     0  01:49     0.00107        8.93       0.232
  WS02006109           JUNCTION      1.23   642.72     0  01:46      0.0347        9.06       0.245
  WS02006110           JUNCTION      0.00   642.68     0  01:46           0        9.04       0.223
  WS02006111           JUNCTION      0.00   673.94     0  01:45           0        9.01       0.050
  WS02006112           JUNCTION     14.90   661.06     0  01:48      0.0621        9.07       0.330
  WS02006113           JUNCTION      0.00   646.30     0  01:46           0        9.02       0.109
  WS02006115           JUNCTION      0.00   661.81     0  01:48           0        9.04       0.225
  WS02006116           JUNCTION      0.00   658.86     0  01:48           0        9.02       0.214
  WS02006230           JUNCTION     10.28   337.90     0  02:46        0.29        7.21       0.208
  WS02006231           JUNCTION      0.00   326.96     0  02:44           0        6.92       0.132
  WS02006232           JUNCTION      0.00   326.93     0  02:44           0        6.94       0.236
  WS02006234           JUNCTION      0.00   326.51     0  02:44           0        6.95       0.122
  WS02006235           JUNCTION      0.00   326.19     0  02:45           0        6.98       0.151
  WS02006238           JUNCTION      0.00   243.78     0  02:36           0        4.74       0.167
  WS02006240           JUNCTION      0.00   242.83     0  02:31           0        4.74       0.250
  WS02006242           JUNCTION      0.00   242.76     0  02:27           0        4.74       0.312
  WS02006243           JUNCTION      0.00   252.98     0  01:39           0        4.74       0.174
  WS02006245           JUNCTION      0.00   260.43     0  01:40           0        4.75       0.170
  WS02006247           JUNCTION      0.00   266.10     0  01:40           0        4.76       0.145
  WS02006248           JUNCTION      0.00   269.52     0  01:40           0        4.76       0.100
  WS02006249           JUNCTION      0.00   276.17     0  01:48           0        4.86       0.196
  WS02006239           JUNCTION      0.00   243.27     0  02:31           0        4.74       0.241
  WS02006251           JUNCTION      0.08   276.88     0  01:45     0.00217        4.87       0.179
  WS02006252           JUNCTION      0.00   200.00     0  01:35           0        4.51       0.009
  WS02006253           JUNCTION      2.03    76.41     0  01:43     0.00803        0.36       1.013
  WS02006256           JUNCTION      0.00   300.00     0  00:00           0         5.7       0.053
  WS02004138           JUNCTION      0.00   190.00     0  00:10           0        5.36       0.074
  WS02004407           JUNCTION      0.00   653.06     0  01:49           0        8.87       0.084
  WS02006228           JUNCTION      0.00   641.49     0  01:46           0        9.04       0.171
  WS02006229           JUNCTION      0.00   639.41     0  01:46           0        9.06       0.152
  WS02006280           JUNCTION      0.00   366.28     0  01:42           0        1.87       0.003
  WS02006284           JUNCTION      0.10   366.31     0  01:42      0.0027        1.87       0.028
  WS02006287           JUNCTION      0.00   366.22     0  01:42           0        1.87       0.038
  WSF200               JUNCTION      0.00   649.16     0  01:52           0        8.75       0.050
  HS02004901           JUNCTION     18.12    18.12     0  01:36      0.0747      0.0749       2.402
  HS02004881           JUNCTION      7.67    74.61     0  01:43      0.0326       0.352       0.122
  HS02004876           JUNCTION     13.40    67.33     0  01:43      0.0628        0.32       0.168
  HS02004870           JUNCTION     14.05    54.07     0  01:43      0.0618       0.257       0.041
  HS02004862           JUNCTION     12.60    40.55     0  01:44      0.0678       0.196       0.087
  HS02004856           JUNCTION     10.50    27.98     0  01:43      0.0465       0.129       1.122
  HS02004852           JUNCTION      0.00    17.93     0  01:51           0      0.0829       0.064
  HS02004848           JUNCTION     27.80    27.80     0  01:53       0.149       0.149       0.028
  HS02004842           JUNCTION      0.00    10.09     0  01:58           0      0.0794      19.594
  HS02004837           JUNCTION     29.79    38.22     0  01:51       0.287       0.353       0.229
  HS02004830           JUNCTION      0.15    38.36     0  01:51     0.00423       0.344       0.361
  HS02004824           JUNCTION     33.49    71.74     0  01:54       0.195       0.538       0.100
  HS02004817           JUNCTION      0.60    72.33     0  01:54      0.0169       0.554       3.103
  HS02004807           JUNCTION     26.14    95.63     0  01:52       0.114       0.651       0.672
  HS02004802           JUNCTION      0.00    95.92     0  01:53           0       0.649       0.614
  HS02004799           JUNCTION     20.64   230.90     0  01:40      0.0921        1.05       0.258
  HS02004792           JUNCTION     88.99   210.33     0  01:39       0.391       0.955       0.041
  HS02004788           JUNCTION     29.98   122.04     0  01:40       0.175       0.565       0.069
  HS02004785           JUNCTION      0.15    92.14     0  01:39     0.00423       0.391       0.126
  HS02004777           JUNCTION      0.03    92.19     0  01:38    0.000846       0.391       1.344
  HS02004770           JUNCTION     74.74    92.54     0  01:38        0.32       0.393       0.790
  HS02004480           JUNCTION      0.00   273.93     0  01:41           0        1.24       0.088
  HS02004479           JUNCTION      0.00    43.16     0  01:41           0       0.201       0.365
  HS02004478           JUNCTION      0.00   366.17     0  01:42           0        1.87       0.020
  YS02001745           JUNCTION    221.95   430.81     0  02:07        2.35        2.36       0.476
  YS02001748           JUNCTION      0.04   616.58     0  02:07     0.00127        2.35       0.955
  YS02001751           JUNCTION      0.01   445.94     0  01:59     0.00031        2.31       1.007
  YS02001754           JUNCTION      0.26   249.56     0  02:07     0.00733         2.3       1.080
  YS02001762           JUNCTION      0.00   279.37     0  02:11           0        1.84       1.156
  YS02001765           JUNCTION      0.00   277.60     0  02:11           0        1.84       1.335
  YS02001767           JUNCTION      0.54   276.38     0  02:12      0.0151        1.86       1.948
  YS02001770           JUNCTION    273.83   300.56     0  03:00        2.63        2.68       1.177
  YS02001774           JUNCTION      0.00   301.28     0  03:00           0       0.866       2.976
  YS02001779           JUNCTION      0.01   301.61     0  03:00    0.000141       0.835       1.869
  YS02001882           JUNCTION      0.00    25.20     0  02:01           0      0.0147      16.556
  YS02001884           JUNCTION      0.00    47.22     0  02:01           0      0.0506      12.826
  YS02001759           JUNCTION    262.15   540.97     0  02:11        2.42        4.18       0.548
  YS02001887           JUNCTION    333.12   341.05     0  02:11        2.79        2.82       0.286
  YS02001890           JUNCTION      0.00   341.32     0  02:11           0        2.77       0.318
  YS02001898           JUNCTION      0.00   348.87     0  02:11           0        2.76       0.094
  YS02001901           JUNCTION      0.00   340.84     0  02:11           0        2.76       0.239
  YS02001904           JUNCTION      0.00   341.29     0  02:11           0        2.76       0.216
  YS02001907           JUNCTION      0.00   620.14     0  02:33           0        6.14       0.386
  YS02001910           JUNCTION      0.00   320.00     0  03:05           0        3.39       0.334
  YS02001915           JUNCTION    195.26   315.61     0  03:03        1.97         3.4       0.165
  YS02001918           JUNCTION      0.00   135.13     0  02:52           0        1.43       0.124
  YS02001619           JUNCTION    191.04   191.04     0  02:29        1.95        1.95       0.625
  YS02001629           JUNCTION      0.00   213.02     0  02:00           0        1.79       1.601
  YS02001641           JUNCTION      0.00   400.54     0  02:20           0        4.01       0.523
  YS02001644           JUNCTION    211.51  1000.55     0  02:56        2.26        8.23       0.317
  YS02001652           JUNCTION      0.00   314.85     0  02:04           0        2.03       1.104
  YS02001655           JUNCTION      0.15   450.06     0  01:57     0.00434        2.06       1.246
  YS02001920           JUNCTION      2.87   132.84     0  02:52      0.0809        1.44       0.197
  YS02001923           JUNCTION      0.04   115.21     0  02:54     0.00106        1.36       0.052
  YS02001926           JUNCTION      0.05   122.11     0  02:52     0.00147        1.36       0.223
  YS02001929           JUNCTION    105.11   105.11     0  02:59        1.36        1.36       0.036
  YS02001658           JUNCTION      0.00   619.39     0  02:04           0        2.09       1.115
  YS02001661           JUNCTION      0.00   643.32     0  02:23           0        2.86      -0.237
  YS02001664           JUNCTION    239.63   378.11     0  02:22        2.08        2.86       0.250
  YS02001622           JUNCTION      0.00   201.94     0  02:01           0        1.94       1.654
  YS02001633           JUNCTION    215.43   399.97     0  02:05        2.33        4.07       0.787
  YS02001649           JUNCTION      0.00   849.34     0  02:04           0        5.01       0.739
  YS02001757           JUNCTION      0.00  1577.33     0  02:19           0        9.32       0.999
  YS02001895           JUNCTION      0.00   341.68     0  02:11           0        2.77       0.181
  YS02001625           JUNCTION      0.00   212.75     0  02:00           0        1.91       2.079
  YS02163301           JUNCTION      0.00   213.21     0  02:03           0        1.78       1.355
  YS02163601           JUNCTION      0.11   400.09     0  02:05      0.0031        4.02       0.750
  YS02164001           JUNCTION      0.00   400.21     0  02:03           0           4       0.496
  YS02001647           JUNCTION      0.00   606.84     0  02:20           0        4.02       0.698
  YSB1154              JUNCTION     23.84    23.84     0  01:41       0.112       0.113       1.298
  YSB6556              JUNCTION      0.00    24.02     0  01:41           0       0.113       1.116
  YSB1174              JUNCTION     19.99    19.99     0  01:36       0.081      0.0815       1.597
  YSB1171              JUNCTION      0.00    43.59     0  01:40           0         0.2       3.266
  YS02006553           JUNCTION      0.00   620.09     0  02:33           0        6.13       0.251
  YS02006561           JUNCTION      0.00   899.37     0  02:30           0        8.64       0.007
  YS02006556           JUNCTION      0.00   619.98     0  02:33           0        6.14       0.180
  YS02006558           JUNCTION    286.64   899.68     0  02:30        2.56        8.67       0.059
  YS02001783           JUNCTION      0.00   899.39     0  02:30           0        8.64       0.025
  YS02001784           JUNCTION      1.06   900.35     0  02:30      0.0299        8.66       0.041
  YS02001786           JUNCTION      0.06   900.50     0  02:29     0.00159        8.66       0.037
  YS02001788           JUNCTION      0.07   900.67     0  02:30       0.002        8.66       0.021
  YS02001790           JUNCTION      0.15   900.75     0  02:30     0.00437        8.66       0.027
  YS02001791           JUNCTION      0.00   900.77     0  02:29           0        8.66       0.012
  YS02001793           JUNCTION      0.00   900.85     0  02:30           0        8.66       0.004
  WS02004139           JUNCTION      0.32   191.11     0  00:00     0.00905        5.36       0.597
  WSC                  OUTFALL       0.00   860.28     0  01:59           0        14.6       0.000
  3                    OUTFALL       0.00   252.88     0  01:46           0        3.43       0.000
  4                    OUTFALL       0.00    55.90     0  01:46           0      0.0881       0.000
  5                    OUTFALL       0.00     0.00     0  00:00           0           0       0.000 ltr
  JK-storage           STORAGE       0.00   900.87     0  02:29           0        8.81      -0.311
  CC-storage           STORAGE       0.00  1577.11     0  02:19           0        8.22       0.781
  XR-storage           STORAGE     560.10   560.10     0  02:30        9.63        10.2      -0.001
  
  
  **********************
  Node Surcharge Summary
  **********************
  
  Surcharging occurs when water rises above the top of the highest conduit.
  ---------------------------------------------------------------------
                                               Max. Height   Min. Depth
                                   Hours       Above Crown    Below Rim
  Node                 Type      Surcharged         Meters       Meters
  ---------------------------------------------------------------------
  WS02004404           JUNCTION        0.50          0.049        2.731
  WS02004406           JUNCTION        0.32          0.024        2.426
  WS02004405           JUNCTION        0.41          0.037        2.763
  WS02006109           JUNCTION        1.81          0.275        1.545
  WS02006110           JUNCTION        0.94          0.103        1.747
  WS02006112           JUNCTION        1.20          0.195        1.485
  WS02006230           JUNCTION        0.44          0.068        1.502
  WS02006231           JUNCTION        0.60          0.105        1.425
  WS02006232           JUNCTION        1.53          0.227        1.253
  WS02006234           JUNCTION        0.86          0.120        1.120
  WS02006235           JUNCTION        1.07          0.145        1.145
  WS02006238           JUNCTION        1.16          0.160        1.270
  WS02006240           JUNCTION        0.59          0.061        1.329
  WS02006242           JUNCTION        0.82          0.115        0.705
  WS02006239           JUNCTION        0.81          0.106        1.184
  WS02006228           JUNCTION        1.78          0.320        1.880
  YS02001748           JUNCTION        5.58          1.190        0.000
  YS02001751           JUNCTION        5.76          1.200        0.000
  YS02001754           JUNCTION        5.97          1.150        0.000
  YS02001762           JUNCTION        6.14          1.029        0.121
  YS02001765           JUNCTION        6.13          0.975        0.125
  YS02001767           JUNCTION        6.12          0.931        0.099
  YS02001770           JUNCTION        6.11          0.885        0.035
  YS02001774           JUNCTION        6.14          0.985        0.065
  YS02001779           JUNCTION        5.96          0.680        0.000
  YS02001882           JUNCTION        0.92          0.381        0.449
  YS02001884           JUNCTION        0.97          0.419        0.451
  YS02001759           JUNCTION        6.15          1.067        0.143
  YS02001887           JUNCTION        1.09          0.502        0.448
  YS02001890           JUNCTION        1.12          0.532        0.228
  YS02001898           JUNCTION        0.83          0.314        0.426
  YS02001901           JUNCTION        1.04          0.463        0.407
  YS02001904           JUNCTION        1.01          0.430        0.420
  YS02001907           JUNCTION        1.72          0.762        0.188
  YS02001910           JUNCTION        1.19          0.560        0.540
  YS02001915           JUNCTION        0.89          0.352        0.648
  YS02001619           JUNCTION        5.78          0.610        0.000
  YS02001629           JUNCTION        5.80          0.470        0.000
  YS02001641           JUNCTION        6.13          0.975        0.125
  YS02001644           JUNCTION        6.13          0.920        0.000
  YS02001652           JUNCTION        6.03          1.130        0.000
  YS02001655           JUNCTION        5.81          1.200        0.000
  YS02001920           JUNCTION        0.25          0.053        1.087
  YS02001658           JUNCTION        5.63          1.264        0.036
  YS02001661           JUNCTION        0.25          1.326        0.064
  YS02001622           JUNCTION        5.82          0.620        0.000
  YS02001633           JUNCTION        6.12          0.974        0.086
  YS02001649           JUNCTION        6.15          1.050        0.000
  YS02001757           JUNCTION        6.19          1.190        0.020
  YS02001895           JUNCTION        0.86          0.338        0.412
  YS02001625           JUNCTION        6.09          0.780        0.000
  YS02163301           JUNCTION        6.11          0.910        0.120
  YS02163601           JUNCTION        6.15          1.057        0.023
  YS02164001           JUNCTION        6.12          0.987        0.113
  YS02001647           JUNCTION        6.07          0.806        0.094
  YS02006553           JUNCTION        1.77          0.765        0.425
  YS02006561           JUNCTION        0.60          0.128        1.022
  YS02006556           JUNCTION        1.42          0.672        0.678
  YS02006558           JUNCTION        1.37          0.650        0.750
  YS02001783           JUNCTION        1.44          0.699        0.901
  YS02001784           JUNCTION        1.50          1.038        0.452
  YS02001786           JUNCTION        1.44          1.094        0.336
  YS02001788           JUNCTION        1.44          1.150        0.330
  YS02001790           JUNCTION        2.83          1.157        0.000
  YS02001791           JUNCTION        2.96          0.834        1.086
  YS02001793           JUNCTION        3.15          0.966        1.634
  
  
  *********************
  Node Flooding Summary
  *********************
  
  Flooding refers to all water that overflows a node, whether it ponds or not.
  --------------------------------------------------------------------------
                                                             Total   Maximum
                                 Maximum   Time of Max       Flood    Ponded
                        Hours       Rate    Occurrence      Volume     Depth
  Node                 Flooded       LPS   days hr:min    10^6 ltr    Meters
  --------------------------------------------------------------------------
  YS02001748              0.01    189.28      0  02:07       0.000     0.000
  YS02001751              0.01    131.68      0  02:00       0.000     0.000
  YS02001754              0.01     18.97      0  02:07       0.000     0.000
  YS02001779              2.49    301.50      0  03:00       0.815     0.000
  YS02001619              0.01     21.88      0  02:06       0.000     0.000
  YS02001629              0.01     37.12      0  02:06       0.001     0.000
  YS02001644              4.80   1000.53      0  02:56       6.163     0.000
  YS02001652              0.01      3.14      0  02:35       0.000     0.000
  YS02001655              0.01     12.19      0  02:29       0.000     0.000
  YS02001622              0.01     20.82      0  02:06       0.000     0.000
  YS02001649              0.09     43.93      0  02:29       0.004     0.000
  YS02001625              0.86     48.28      0  02:31       0.098     0.000
  YS02001790              0.01    115.39      0  01:58       0.000     0.000
  JK-storage              2.51    600.76      0  02:29       3.137     0.000
  XR-storage              6.03    370.10      0  02:30       3.945     0.000
  
  
  **********************
  Storage Volume Summary
  **********************
  
  --------------------------------------------------------------------------------------------------
                         Average     Avg  Evap Exfil       Maximum     Max    Time of Max    Maximum
                          Volume    Pcnt  Pcnt  Pcnt        Volume    Pcnt     Occurrence    Outflow
  Storage Unit           1000 m3    Full  Loss  Loss       1000 m3    Full    days hr:min        LPS
  --------------------------------------------------------------------------------------------------
  JK-storage               0.161      55     0     0         0.291     100       0  01:59     394.74
  CC-storage               3.169      20     0     0         3.828      24       0  02:54     200.00
  XR-storage               0.906      98     0     0         0.926     100       0  01:48     190.00
  
  
  ***********************
  Outfall Loading Summary
  ***********************
  
  -----------------------------------------------------------
                         Flow       Avg       Max       Total
                         Freq      Flow      Flow      Volume
  Outfall Node           Pcnt       LPS       LPS    10^6 ltr
  -----------------------------------------------------------
  WSC                   99.99    574.72    860.28      14.580
  3                     93.22    153.97    252.88       3.429
  4                     14.64     26.49     55.90       0.088
  5                      0.00      0.00      0.00       0.000
  -----------------------------------------------------------
  System                51.96    755.18   1155.72      18.097
  
  
  ********************
  Link Flow Summary
  ********************
  
  -----------------------------------------------------------------------------
                                 Maximum  Time of Max   Maximum    Max/    Max/
                                  |Flow|   Occurrence   |Veloc|    Full    Full
  Link                 Type          LPS  days hr:min     m/sec    Flow   Depth
  -----------------------------------------------------------------------------
  WS02003066WSF200     CONDUIT    649.16     0  01:52      2.87    0.11    0.25
  WS02006287WS02006284 CONDUIT    366.21     0  01:42      1.96    0.17    0.29
  WS02006284WS02006280 CONDUIT    366.28     0  01:42      2.20    0.15    0.26
  WS02006280WS02006229 CONDUIT    366.28     0  01:42      3.55    0.08    0.19
  WS02006229WS02006228 CONDUIT    641.49     0  01:46      1.28    2.12    1.00
  WS02006256WS02006235 CONDUIT    166.25     0  00:01      2.58    1.76    1.00
  WS02006253WS02006251 CONDUIT     76.80     0  01:45      0.58    0.23    0.79
  WS02006252WS02006251 CONDUIT    200.96     0  01:35      1.97    0.74    0.76
  WS02006251WS02006249 CONDUIT    276.17     0  01:48      1.03    0.80    0.80
  WS02006249WS02006248 CONDUIT    269.52     0  01:40      1.11    1.48    0.80
  WS02006248WS02006247 CONDUIT    266.10     0  01:40      1.08    0.58    0.86
  WS02006247WS02006245 CONDUIT    260.43     0  01:40      1.04    2.06    0.92
  WS02006245WS02006243 CONDUIT    252.98     0  01:39      1.10    0.75    0.95
  WS02006243WS02006242 CONDUIT    242.76     0  02:27      0.86    0.52    0.99
  WS02006242WS02006240 CONDUIT    242.83     0  02:31      0.68    0.96    1.00
  WS02006240WS02006239 CONDUIT    243.27     0  02:31      0.70    0.77    1.00
  WS02006239WS02006238 CONDUIT    243.78     0  02:36      0.67    0.78    1.00
  WS02006238WS02006235 CONDUIT    243.80     0  02:36      1.25    0.54    1.00
  WS02006235WS02006234 CONDUIT    326.51     0  02:44      0.94    3.44    1.00
  WS02006234WS02006232 CONDUIT    326.93     0  02:44      1.13    0.66    1.00
  WS02006232WS02006231 CONDUIT    326.96     0  02:44      0.94    0.69    1.00
  WS02006231WS02006230 CONDUIT    327.62     0  02:46      1.29    4.97    1.00
  WS02006230WS02006229 CONDUIT    338.80     0  02:44      0.88    7.54    1.00
  WS02006228WS02006109 CONDUIT    641.49     0  01:46      1.28    2.80    1.00
  WS02006116WS02004401 CONDUIT    655.34     0  01:49      0.85    0.90    0.95
  WS02006115WS02006116 CONDUIT    658.86     0  01:48      0.93    0.85    0.88
  WS02006113WS02006111 CONDUIT    673.94     0  01:45      2.61    0.81    0.52
  WS02006112WS02006115 CONDUIT    661.81     0  01:48      0.87    0.39    0.93
  WS02006111WS02006112 CONDUIT    648.00     0  01:48      1.72    0.31    0.71
  WS02006110WS02006113 CONDUIT    646.30     0  01:46      1.48    0.59    0.81
  WS02006109WS02006110 CONDUIT    642.68     0  01:46      1.28    1.24    1.00
  WS02004411WS02004412 CONDUIT    649.12     0  01:51      1.02    0.92    0.76
  WS02004401WS02004402 CONDUIT    657.43     0  01:49      0.85    0.79    0.97
  WS02004413WS02003067 CONDUIT    649.06     0  01:52      1.23    0.28    0.63
  WS02004412WS02004413 CONDUIT    649.31     0  01:52      0.93    0.43    0.83
  WS02004410WS02004411 CONDUIT    649.46     0  01:51      1.02    0.89    0.75
  WS02004409WS02004410 CONDUIT    650.05     0  01:50      1.04    0.84    0.75
  WS02004407WS02004409 CONDUIT    651.82     0  01:49      1.57    0.23    0.54
  WS02004406WS02004407 CONDUIT    653.06     0  01:49      1.18    0.29    0.66
  WS02004405WS02004406 CONDUIT    652.36     0  01:49      0.83    1.29    1.00
  WS02004404WS02004405 CONDUIT    652.30     0  01:49      0.84    6.39    1.00
  WS02004403WS02004404 CONDUIT    652.47     0  01:49      0.83    0.47    0.99
  WS02004402WS02004403 CONDUIT    655.10     0  01:49      0.84    0.94    0.98
  WS02004139WS02001211 CONDUIT    190.99     0  02:13      0.69    0.24    0.48
  WS02004138WS02004139 CONDUIT    190.79     0  00:00      2.94    0.04    0.34
  WS02003067WS02003066 CONDUIT    649.14     0  01:52      1.34    0.21    0.44
  WS02001213WS02003059 CONDUIT    200.68     0  02:11      0.65    0.33    0.71
  WS02001212WS02001213 CONDUIT    199.73     0  02:12      1.03    0.31    0.38
  WS02001211WS02001212 CONDUIT    199.12     0  02:12      0.54    0.15    0.53
  WS02003072WS02003073 CONDUIT    858.45     0  01:59      1.67    1.85    0.46
  WS02003069WS02003072 CONDUIT    858.49     0  01:58      1.58    0.41    0.49
  WS02003060WS02003069 CONDUIT    858.26     0  01:57      1.83    0.34    0.43
  WS02003059WS02003060 CONDUIT    201.86     0  02:10      0.67    0.13    0.62
  HS02004901HS02004770 CONDUIT     17.82     0  01:38      0.06    0.07    0.40
  HS02004876HS02004881 CONDUIT     67.33     0  01:43      0.89    0.72    0.11
  HS02004870HS02004876 CONDUIT     54.05     0  01:43      0.61    0.04    0.13
  HS02004842HS02004848 CONDUIT     10.09     0  01:58      0.05    0.01    0.30
  HS02004837HS02004842 CONDUIT     10.33     0  02:00      0.41    0.01    0.31
  HS02004830HS02004837 CONDUIT     38.21     0  01:51      0.54    0.04    0.10
  HS02004824HS02004830 CONDUIT     38.37     0  01:52      0.57    0.05    0.10
  HS02004817HS02004824 CONDUIT     71.73     0  01:54      0.22    0.03    0.46
  HS02004770HS02004777 CONDUIT     92.16     0  01:38      0.32    0.17    0.41
  HS02004799HS02004480 CONDUIT    230.85     0  01:40      0.78    0.29    0.42
  HS02004792HS02004799 CONDUIT    210.29     0  01:40      0.89    0.13    0.34
  HS02004788HS02004792 CONDUIT    122.00     0  01:40      1.02    0.08    0.17
  HS02004785HS02004788 CONDUIT     92.09     0  01:40      0.67    0.69    0.20
  HS02004777HS02004785 CONDUIT     91.99     0  01:39      0.39    0.11    0.34
  HS02004480HS02004478 CONDUIT    273.63     0  01:41      1.21    1.15    0.32
  HS02004479HS02004480 CONDUIT     43.47     0  01:42      0.30    0.04    0.41
  HS02004862HS02004870 CONDUIT     40.54     0  01:45      0.62    0.04    0.09
  HS02004848HS02004852 CONDUIT     17.93     0  01:51      0.42    0.02    0.06
  HS02004856HS02004862 CONDUIT     27.96     0  01:44      0.46    0.03    0.09
  HS02004852HS02004856 CONDUIT     17.92     0  01:52      0.22    0.02    0.12
  HS02004802HS02004478 CONDUIT     96.20     0  01:53      0.42    0.08    0.34
  HS02004478WS02006287 CONDUIT    366.22     0  01:42      1.67    0.10    0.24
  HS02004817HS02004807 CONDUIT     72.77     0  01:55      0.17    0.04    0.61
  HS02004807HS02004802 CONDUIT     95.92     0  01:53      0.36    0.18    0.39
  YS02001759YS02001757 CONDUIT    542.21     0  02:11      0.69    0.39    1.00
  YS02001762YS02001759 CONDUIT    281.06     0  02:11      0.36    0.32    1.00
  YS02001765YS02001762 CONDUIT    279.37     0  02:11      0.36    0.26    1.00
  YS02001770YS02001767 CONDUIT    275.84     0  02:12      0.42    1.09    1.00
  YS02001774YS02001770 CONDUIT    301.28     0  03:00      0.38    0.19    1.00
  YS02001779YS02001774 CONDUIT    301.61     0  03:00      0.38    0.15    1.00
  YS02001649YS02001757 CONDUIT    851.50     0  02:04      1.08    0.52    1.00
  YS02001767YS02001765 CONDUIT    277.60     0  02:11      0.38    0.35    1.00
  YS02006561YS02001783 CONDUIT    899.39     0  02:30      2.11    0.47    1.00
  YS02001783YS02001784 CONDUIT    899.29     0  02:30      1.79    1.24    1.00
  YS02001784YS02001785 CONDUIT    900.44     0  02:29      1.79    2.10    1.00
  YS02001788YS02001790 CONDUIT    900.59     0  02:30      2.31    0.66    1.00
  YS02001790YS02001791 CONDUIT    900.77     0  02:29      2.82    0.98    1.00
  YS02001791YS02001793 CONDUIT    900.85     0  02:30      5.70    0.39    1.00
  YS02001910YS02001907 CONDUIT    320.17     0  03:05      0.49    0.18    1.00
  YS02001786YS02001788 CONDUIT    900.59     0  02:30      2.22    1.74    1.00
  YS02001915YS02001910 CONDUIT    320.00     0  03:05      0.58    0.16    1.00
  YS02001918YS02001915 CONDUIT    144.37     0  03:07      0.44    0.08    1.00
  YS02001923YS02001920 CONDUIT    129.97     0  02:52      0.68    0.06    0.90
  YS02001926YS02001923 CONDUIT    115.17     0  02:54      0.78    0.16    0.61
  YS02001929YS02001926 CONDUIT    122.06     0  02:52      0.83    0.06    0.49
  YS02001920YS02001918 CONDUIT    135.13     0  02:52      0.67    0.13    1.00
  YS02001629YS02163301 CONDUIT    213.21     0  02:03      0.27    0.26    1.00
  YS02001619YS02001622 CONDUIT    201.94     0  02:01      0.73    0.30    1.00
  YS02001622YS02001625 CONDUIT    212.75     0  02:00      0.36    0.11    1.00
  YS02001625YS02001629 CONDUIT    213.02     0  02:00      0.30    0.10    1.00
  YS02163301YS02001633 CONDUIT    213.17     0  02:03      0.27    0.20    1.00
  YS02163601YS02164001 CONDUIT    400.21     0  02:03      0.51    0.35    1.00
  YS02164001YS02001641 CONDUIT    400.54     0  02:20      0.51    0.55    1.00
  YS02001641YS02001644 CONDUIT    400.86     0  02:20      0.51    1.30    1.00
  YS02001647YS02001649 CONDUIT    607.13     0  02:20      0.77    0.32    1.00
  YS02006553YS02006556 CONDUIT    619.98     0  02:33      0.79    0.53    1.00
  YS02006556YS02006558 CONDUIT    620.17     0  02:33      0.79    0.49    1.00
  YSB6556YSB1171       CONDUIT     24.42     0  01:43      0.09    0.03    0.68
  YS02001907YS02006553 CONDUIT    620.09     0  02:33      0.69    0.73    1.00
  YS02006558YS02006561 CONDUIT    899.37     0  02:30      3.18    1.99    1.00
  YS02001633YS02163601 CONDUIT    399.98     0  02:05      0.51    0.42    1.00
  YS02001644YS02001647 CONDUIT    606.84     0  02:20      0.77    0.36    1.00
  YS02001745YS02001748 CONDUIT    616.53     0  02:07      1.65    0.24    0.94
  YS02001748YS02001751 CONDUIT    445.93     0  01:59      1.23    0.23    1.00
  YS02001751YS02001754 CONDUIT    249.30     0  02:07      1.05    0.12    1.00
  YS02001754YS02001757 CONDUIT    250.10     0  02:07      0.33    0.10    1.00
  YS02001882YS02001884 CONDUIT     25.20     0  02:01      0.15    0.03    1.00
  YS02001884YS02001887 CONDUIT     47.22     0  02:01      0.11    0.06    1.00
  YS02001890YS02001895 CONDUIT    341.68     0  02:11      0.47    0.16    1.00
  YS02001895YS02001898 CONDUIT    348.87     0  02:11      0.59    0.61    1.00
  YS02001898YS02001901 CONDUIT    340.84     0  02:11      0.51    0.22    1.00
  YS02001901YS02001904 CONDUIT    341.29     0  02:11      0.48    0.53    1.00
  YS02001904YS02001907 CONDUIT    341.38     0  02:11      0.43    0.12    1.00
  YS02001887YS02001890 CONDUIT    341.32     0  02:11      0.43    0.58    1.00
  YS02001652YS02001649 CONDUIT    315.15     0  02:04      0.61    0.16    1.00
  YS02001655YS02001652 CONDUIT    314.85     0  02:04      1.11    0.15    1.00
  YS02001658YS02001655 CONDUIT    449.91     0  01:57      1.42    0.19    1.00
  YS02001661YS02001658 CONDUIT    619.39     0  02:04      1.73    0.24    1.00
  YS02001664YS02001661 CONDUIT    643.32     0  02:23      1.63    0.20    0.72
  YSB1154YSB6556       CONDUIT     24.02     0  01:41      0.15    0.04    0.57
  YSB1174YSB1171       CONDUIT     20.01     0  01:36      0.07    0.03    0.68
  YSB1171HS02004479    CONDUIT     43.16     0  01:41      0.54    0.03    0.54
  HS02004881HS02006253 CONDUIT     74.61     0  01:43      2.04    0.01    0.19
  YS02001793JiankangQianchi CONDUIT    900.87     0  02:29     13.01    0.07    1.00
  YS02001757CaochengTiaoxuchi CONDUIT   1577.11     0  02:19      2.50    0.69    1.00
  WSF200WS02003060     CONDUIT    649.07     0  01:53      1.90    0.14    0.35
  1                    CONDUIT    860.28     0  01:59      3.19    0.30    0.38
  2                    CONDUIT     55.90     0  01:46      4.11    0.13    0.25
  3                    CONDUIT    252.88     0  01:46      8.35    0.40    0.46
  4                    CONDUIT      0.00     0  00:00      0.00    0.00    0.00
  CC-Pump-1            PUMP       200.00     0  01:35              1.00
  CC-Pump-2            PUMP         0.00     0  00:00              0.00
  JK-Pump-1            PUMP       300.00     0  00:00              1.00
  JK-Pump-2            PUMP         0.00     0  00:00              0.00
  XR-Pump-1            PUMP        95.00     0  00:00              1.00
  XR-Pump-2            PUMP        95.00     0  00:20              1.00
  XR-Pump-3            PUMP        95.00     0  00:00              1.00
  XR-Pump-4            PUMP        95.00     0  00:20              1.00
  
  
  ***************************
  Flow Classification Summary
  ***************************
  
  -------------------------------------------------------------------------------------
                      Adjusted    ---------- Fraction of Time in Flow Class ---------- 
                       /Actual         Up    Down  Sub   Sup   Up    Down  Norm  Inlet 
  Conduit               Length    Dry  Dry   Dry   Crit  Crit  Crit  Crit  Ltd   Ctrl  
  -------------------------------------------------------------------------------------
  WS02003066WSF200        1.00   0.06  0.00  0.00  0.00  0.94  0.00  0.00  0.62  0.00
  WS02006287WS02006284    1.00   0.04  0.01  0.00  0.60  0.35  0.00  0.00  0.72  0.00
  WS02006284WS02006280    1.00   0.04  0.00  0.00  0.00  0.00  0.00  0.96  0.00  0.00
  WS02006280WS02006229    1.00   0.04  0.00  0.00  0.00  0.00  0.00  0.96  0.00  0.00
  WS02006229WS02006228    1.00   0.00  0.00  0.00  0.99  0.00  0.00  0.01  0.00  0.00
  WS02006256WS02006235    1.00   0.00  0.00  0.00  1.00  0.00  0.00  0.00  0.00  0.00
  WS02006253WS02006251    1.00   0.03  0.01  0.00  0.96  0.00  0.00  0.00  0.00  0.00
  WS02006252WS02006251    1.00   0.06  0.00  0.00  0.00  0.00  0.94  0.00  0.00  0.00
  WS02006251WS02006249    1.00   0.00  0.00  0.00  1.00  0.00  0.00  0.00  0.16  0.00
  WS02006249WS02006248    1.00   0.00  0.02  0.00  0.95  0.00  0.03  0.00  0.00  0.00
  WS02006248WS02006247    1.00   0.02  0.00  0.00  0.98  0.00  0.00  0.00  0.05  0.00
  WS02006247WS02006245    1.00   0.02  0.00  0.00  0.98  0.00  0.00  0.00  0.00  0.00
  WS02006245WS02006243    1.00   0.01  0.00  0.00  0.96  0.00  0.00  0.02  0.01  0.00
  WS02006243WS02006242    1.00   0.01  0.00  0.00  0.99  0.00  0.00  0.00  0.15  0.00
  WS02006242WS02006240    1.00   0.00  0.00  0.00  0.99  0.00  0.00  0.00  0.00  0.00
  WS02006240WS02006239    1.00   0.00  0.00  0.00  0.97  0.00  0.00  0.03  0.01  0.00
  WS02006239WS02006238    1.00   0.00  0.00  0.00  1.00  0.00  0.00  0.00  0.00  0.00
  WS02006238WS02006235    1.00   0.00  0.00  0.00  1.00  0.00  0.00  0.00  0.00  0.00
  WS02006235WS02006234    1.00   0.00  0.00  0.00  0.97  0.00  0.03  0.00  0.00  0.00
  WS02006234WS02006232    1.00   0.00  0.00  0.00  1.00  0.00  0.00  0.00  0.07  0.00
  WS02006232WS02006231    1.00   0.00  0.00  0.00  0.99  0.00  0.00  0.00  0.00  0.00
  WS02006231WS02006230    1.00   0.00  0.00  0.00  0.48  0.00  0.52  0.00  0.00  0.00
  WS02006230WS02006229    1.00   0.00  0.00  0.00  0.99  0.00  0.00  0.01  0.01  0.00
  WS02006228WS02006109    1.00   0.00  0.00  0.00  1.00  0.00  0.00  0.00  0.00  0.00
  WS02006116WS02004401    1.00   0.02  0.00  0.00  0.98  0.00  0.00  0.00  0.00  0.00
  WS02006115WS02006116    1.00   0.02  0.00  0.00  0.97  0.00  0.00  0.01  0.00  0.00
  WS02006113WS02006111    1.00   0.02  0.00  0.00  0.00  0.98  0.00  0.00  0.11  0.00
  WS02006112WS02006115    1.00   0.02  0.00  0.00  0.98  0.00  0.00  0.00  0.00  0.00
  WS02006111WS02006112    1.00   0.02  0.00  0.00  0.98  0.00  0.00  0.00  0.93  0.00
  WS02006110WS02006113    1.00   0.01  0.01  0.00  0.98  0.00  0.00  0.00  0.00  0.00
  WS02006109WS02006110    1.00   0.00  0.01  0.00  0.98  0.00  0.01  0.00  0.00  0.00
  WS02004411WS02004412    1.00   0.04  0.00  0.00  0.96  0.00  0.00  0.00  0.00  0.00
  WS02004401WS02004402    1.00   0.02  0.00  0.00  0.98  0.00  0.00  0.00  0.00  0.00
  WS02004413WS02003067    1.00   0.04  0.02  0.00  0.00  0.00  0.95  0.00  0.00  0.00
  WS02004412WS02004413    1.00   0.04  0.00  0.00  0.96  0.00  0.00  0.00  0.03  0.00
  WS02004410WS02004411    1.00   0.04  0.00  0.00  0.96  0.00  0.00  0.00  0.03  0.00
  WS02004409WS02004410    1.00   0.04  0.00  0.00  0.96  0.00  0.00  0.00  0.00  0.00
  WS02004407WS02004409    1.00   0.04  0.00  0.00  0.96  0.00  0.00  0.00  0.89  0.00
  WS02004406WS02004407    1.00   0.00  0.03  0.00  0.96  0.00  0.00  0.00  0.00  0.00
  WS02004405WS02004406    1.00   0.00  0.00  0.00  1.00  0.00  0.00  0.00  0.01  0.00
  WS02004404WS02004405    1.00   0.00  0.00  0.00  1.00  0.00  0.00  0.00  0.00  0.00
  WS02004403WS02004404    1.00   0.00  0.02  0.00  0.98  0.00  0.00  0.00  0.01  0.00
  WS02004402WS02004403    1.00   0.02  0.00  0.00  0.98  0.00  0.00  0.00  0.00  0.00
  WS02004139WS02001211    1.00   0.00  0.00  0.00  1.00  0.00  0.00  0.00  0.00  0.00
  WS02004138WS02004139    1.00   0.00  0.00  0.00  0.99  0.01  0.00  0.00  1.00  0.00
  WS02003067WS02003066    1.00   0.05  0.00  0.00  0.94  0.00  0.00  0.00  0.00  0.00
  WS02001213WS02003059    1.00   0.00  0.00  0.00  0.99  0.00  0.00  0.00  0.00  0.00
  WS02001212WS02001213    1.00   0.00  0.00  0.00  0.92  0.00  0.07  0.00  0.00  0.00
  WS02001211WS02001212    1.00   0.00  0.00  0.00  1.00  0.00  0.00  0.00  0.00  0.00
  WS02003072WS02003073    1.00   0.00  0.00  0.00  0.00  0.00  0.00  1.00  0.00  0.00
  WS02003069WS02003072    1.00   0.00  0.00  0.00  0.99  0.01  0.00  0.00  0.18  0.00
  WS02003060WS02003069    1.00   0.00  0.00  0.00  0.98  0.02  0.00  0.00  0.17  0.00
  WS02003059WS02003060    1.00   0.00  0.00  0.00  1.00  0.00  0.00  0.00  0.01  0.00
  HS02004901HS02004770    1.00   0.04  0.00  0.00  0.96  0.00  0.00  0.00  0.00  0.00
  HS02004876HS02004881    1.00   0.02  0.00  0.00  0.89  0.08  0.00  0.00  0.00  0.00
  HS02004870HS02004876    1.00   0.01  0.00  0.00  0.99  0.00  0.00  0.00  0.95  0.00
  HS02004842HS02004848    1.00   0.00  0.04  0.00  0.96  0.00  0.00  0.00  0.58  0.00
  HS02004837HS02004842    1.00   0.00  0.00  0.00  0.99  0.01  0.00  0.00  0.11  0.00
  HS02004830HS02004837    1.00   0.00  0.00  0.00  1.00  0.00  0.00  0.00  0.99  0.00
  HS02004824HS02004830    1.00   0.00  0.00  0.00  1.00  0.00  0.00  0.00  0.00  0.00
  HS02004817HS02004824    1.00   0.00  0.00  0.00  1.00  0.00  0.00  0.00  1.00  0.00
  HS02004770HS02004777    1.00   0.00  0.04  0.00  0.96  0.00  0.00  0.00  0.02  0.00
  HS02004799HS02004480    1.00   0.00  0.02  0.00  0.96  0.00  0.02  0.00  0.00  0.00
  HS02004792HS02004799    1.00   0.00  0.00  0.00  0.99  0.01  0.00  0.00  0.98  0.00
  HS02004788HS02004792    1.00   0.00  0.00  0.00  0.99  0.01  0.00  0.00  0.98  0.00
  HS02004785HS02004788    1.00   0.00  0.00  0.00  1.00  0.00  0.00  0.00  0.00  0.00
  HS02004777HS02004785    1.00   0.00  0.00  0.00  1.00  0.00  0.00  0.00  0.12  0.00
  HS02004480HS02004478    1.00   0.04  0.00  0.00  0.65  0.00  0.00  0.31  0.00  0.00
  HS02004479HS02004480    1.00   0.03  0.00  0.00  0.97  0.00  0.00  0.00  0.11  0.00
  HS02004862HS02004870    1.00   0.00  0.00  0.00  1.00  0.00  0.00  0.00  0.03  0.00
  HS02004848HS02004852    1.00   0.04  0.00  0.00  0.96  0.00  0.00  0.00  0.78  0.00
  HS02004856HS02004862    1.00   0.00  0.05  0.00  0.95  0.00  0.00  0.00  0.83  0.00
  HS02004852HS02004856    1.00   0.04  0.00  0.00  0.96  0.00  0.00  0.00  0.86  0.00
  HS02004802HS02004478    1.00   0.04  0.00  0.00  0.96  0.00  0.00  0.00  0.02  0.00
  HS02004478WS02006287    1.00   0.05  0.00  0.00  0.75  0.21  0.00  0.00  0.69  0.00
  HS02004817HS02004807    1.00   0.00  0.04  0.00  0.96  0.00  0.00  0.00  0.01  0.00
  HS02004807HS02004802    1.00   0.04  0.00  0.00  0.96  0.00  0.00  0.00  0.00  0.00
  YS02001759YS02001757    1.00   0.00  0.00  0.00  1.00  0.00  0.00  0.00  0.16  0.00
  YS02001762YS02001759    1.00   0.00  0.00  0.00  1.00  0.00  0.00  0.00  0.03  0.00
  YS02001765YS02001762    1.00   0.00  0.00  0.00  1.00  0.00  0.00  0.00  0.13  0.00
  YS02001770YS02001767    1.00   0.00  0.00  0.00  1.00  0.00  0.00  0.00  0.00  0.00
  YS02001774YS02001770    1.00   0.00  0.04  0.00  0.96  0.00  0.00  0.00  0.03  0.00
  YS02001779YS02001774    1.00   0.00  0.00  0.00  1.00  0.00  0.00  0.00  0.17  0.00
  YS02001649YS02001757    1.00   0.00  0.00  0.00  1.00  0.00  0.00  0.00  0.16  0.00
  YS02001767YS02001765    1.00   0.00  0.00  0.00  1.00  0.00  0.00  0.00  0.00  0.00
  YS02006561YS02001783    1.00   0.05  0.00  0.00  0.44  0.51  0.00  0.00  0.58  0.00
  YS02001783YS02001784    1.00   0.00  0.05  0.00  0.95  0.00  0.00  0.00  0.00  0.00
  YS02001784YS02001785    1.00   0.00  0.00  0.00  1.00  0.00  0.00  0.00  0.16  0.00
  YS02001788YS02001790    1.00   0.00  0.00  0.00  0.52  0.48  0.00  0.00  0.52  0.00
  YS02001790YS02001791    1.00   0.00  0.00  0.00  0.49  0.51  0.00  0.00  0.39  0.00
  YS02001791YS02001793    1.00   0.00  0.00  0.00  0.50  0.50  0.00  0.00  0.02  0.00
  YS02001910YS02001907    1.00   0.00  0.00  0.00  0.98  0.00  0.00  0.02  0.12  0.00
  YS02001786YS02001788    1.00   0.00  0.00  0.00  0.50  0.50  0.00  0.00  0.00  0.00
  YS02001915YS02001910    1.00   0.00  0.00  0.00  0.99  0.01  0.00  0.00  0.14  0.00
  YS02001918YS02001915    1.00   0.00  0.01  0.00  0.98  0.01  0.00  0.00  0.58  0.00
  YS02001923YS02001920    1.00   0.00  0.00  0.00  1.00  0.00  0.00  0.00  0.83  0.00
  YS02001926YS02001923    1.00   0.00  0.03  0.00  0.15  0.00  0.81  0.00  0.00  0.00
  YS02001929YS02001926    1.00   0.00  0.04  0.00  0.96  0.00  0.00  0.00  0.79  0.00
  YS02001920YS02001918    1.00   0.00  0.01  0.00  0.99  0.00  0.00  0.00  0.00  0.00
  YS02001629YS02163301    1.00   0.04  0.00  0.00  0.95  0.00  0.00  0.00  0.00  0.00
  YS02001619YS02001622    1.00   0.04  0.00  0.00  0.96  0.00  0.00  0.00  0.00  0.00
  YS02001622YS02001625    1.00   0.04  0.00  0.00  0.96  0.00  0.00  0.00  0.04  0.00
  YS02001625YS02001629    1.00   0.04  0.01  0.00  0.94  0.00  0.01  0.00  0.00  0.00
  YS02163301YS02001633    1.00   0.00  0.04  0.00  0.96  0.00  0.00  0.00  0.00  0.00
  YS02163601YS02164001    1.00   0.00  0.03  0.00  0.97  0.00  0.00  0.00  0.00  0.00
  YS02164001YS02001641    1.00   0.01  0.02  0.00  0.97  0.00  0.00  0.00  0.06  0.00
  YS02001641YS02001644    1.00   0.00  0.01  0.00  0.99  0.00  0.00  0.00  0.00  0.00
  YS02001647YS02001649    1.00   0.00  0.05  0.00  0.95  0.00  0.00  0.00  0.01  0.00
  YS02006553YS02006556    1.00   0.01  0.00  0.00  0.99  0.00  0.00  0.00  0.03  0.00
  YS02006556YS02006558    1.00   0.00  0.00  0.00  1.00  0.00  0.00  0.00  0.00  0.00
  YSB6556YSB1171          1.00   0.03  0.01  0.00  0.96  0.00  0.00  0.00  0.00  0.00
  YS02001907YS02006553    1.00   0.00  0.02  0.00  0.98  0.00  0.00  0.00  0.00  0.00
  YS02006558YS02006561    1.00   0.05  0.00  0.00  0.20  0.75  0.00  0.00  0.50  0.00
  YS02001633YS02163601    1.00   0.00  0.01  0.00  0.99  0.00  0.00  0.00  0.15  0.00
  YS02001644YS02001647    1.00   0.00  0.05  0.00  0.95  0.00  0.00  0.00  0.00  0.00
  YS02001745YS02001748    1.00   0.00  0.00  0.00  0.92  0.00  0.00  0.07  0.03  0.00
  YS02001748YS02001751    1.00   0.00  0.00  0.00  0.98  0.02  0.00  0.00  0.14  0.00
  YS02001751YS02001754    1.00   0.00  0.00  0.00  0.95  0.00  0.00  0.05  0.01  0.00
  YS02001754YS02001757    1.00   0.00  0.00  0.00  0.99  0.01  0.00  0.00  0.17  0.00
  YS02001882YS02001884    1.00   0.04  0.00  0.00  0.96  0.00  0.00  0.00  0.00  0.00
  YS02001884YS02001887    1.00   0.03  0.01  0.00  0.96  0.00  0.00  0.00  0.00  0.00
  YS02001890YS02001895    1.00   0.00  0.04  0.00  0.95  0.00  0.00  0.00  0.00  0.00
  YS02001895YS02001898    1.00   0.05  0.00  0.00  0.95  0.00  0.00  0.00  0.00  0.00
  YS02001898YS02001901    1.00   0.05  0.00  0.00  0.95  0.00  0.00  0.00  0.01  0.00
  YS02001901YS02001904    1.00   0.05  0.00  0.00  0.95  0.00  0.00  0.00  0.00  0.00
  YS02001904YS02001907    1.00   0.00  0.04  0.00  0.95  0.00  0.00  0.00  0.00  0.00
  YS02001887YS02001890    1.00   0.00  0.00  0.00  0.98  0.00  0.02  0.00  0.00  0.00
  YS02001652YS02001649    1.00   0.00  0.00  0.00  1.00  0.00  0.00  0.00  0.15  0.00
  YS02001655YS02001652    1.00   0.00  0.00  0.00  0.95  0.00  0.00  0.05  0.01  0.00
  YS02001658YS02001655    1.00   0.00  0.04  0.00  0.94  0.02  0.00  0.00  0.02  0.00
  YS02001661YS02001658    1.00   0.04  0.00  0.00  0.92  0.04  0.00  0.00  0.03  0.00
  YS02001664YS02001661    1.00   0.04  0.00  0.00  0.89  0.07  0.00  0.00  0.15  0.00
  YSB1154YSB6556          1.00   0.04  0.00  0.00  0.96  0.00  0.00  0.00  0.01  0.00
  YSB1174YSB1171          1.00   0.03  0.01  0.00  0.97  0.00  0.00  0.00  0.00  0.00
  YSB1171HS02004479       1.00   0.03  0.00  0.00  0.97  0.00  0.00  0.00  0.10  0.00
  HS02004881HS02006253    1.00   0.03  0.00  0.00  0.93  0.00  0.00  0.03  0.80  0.00
  YS02001793JiankangQianchi    1.00   0.00  0.00  0.00  0.64  0.36  0.00  0.00  0.12  0.00
  YS02001757CaochengTiaoxuchi    1.00   0.00  0.06  0.00  0.90  0.04  0.00  0.00  0.00  0.00
  WSF200WS02003060        1.00   0.00  0.06  0.00  0.60  0.34  0.00  0.00  0.01  0.00
  1                       1.00   0.00  0.00  0.00  0.00  1.00  0.00  0.00  0.61  0.00
  2                       1.00   0.85  0.00  0.00  0.00  0.15  0.00  0.00  0.02  0.00
  3                       1.00   0.07  0.00  0.00  0.00  0.93  0.00  0.00  0.18  0.00
  4                       1.00   1.00  0.00  0.00  0.00  0.00  0.00  0.00  0.00  0.00
  
  
  *************************
  Conduit Surcharge Summary
  *************************
  
  ----------------------------------------------------------------------------
                                                           Hours        Hours 
                         --------- Hours Full --------   Above Full   Capacity
  Conduit                Both Ends  Upstream  Dnstream   Normal Flow   Limited
  ----------------------------------------------------------------------------
  WS02006229WS02006228        1.78      1.83      1.78      6.29         1.78
  WS02006256WS02006235        6.42      6.43      6.97      4.24         0.01
  WS02006249WS02006248        0.01      0.01      0.01      6.24         0.01
  WS02006247WS02006245        0.01      0.01      0.01      6.24         0.01
  WS02006243WS02006242        0.01      0.01      0.82      0.01         0.01
  WS02006242WS02006240        0.59      0.59      1.00      0.01         0.01
  WS02006240WS02006239        0.65      0.65      0.81      0.01         0.01
  WS02006239WS02006238        1.05      1.05      1.16      0.01         0.01
  WS02006238WS02006235        1.12      1.12      1.32      0.01         0.01
  WS02006235WS02006234        0.86      0.86      1.07      6.44         0.01
  WS02006234WS02006232        0.99      0.99      1.53      0.01         0.01
  WS02006232WS02006231        0.60      0.60      1.53      0.01         0.01
  WS02006231WS02006230        0.44      0.44      0.65      6.43         0.01
  WS02006230WS02006229        2.28      5.19      2.28      6.52         2.28
  WS02006228WS02006109        1.81      1.99      1.81      6.31         1.81
  WS02006112WS02006115        0.01      0.01      1.20      0.01         0.01
  WS02006111WS02006112        0.01      0.01      6.25      0.01         0.01
  WS02006110WS02006113        0.01      0.01      1.89      0.01         0.01
  WS02006109WS02006110        0.94      0.94      1.99      0.94         0.01
  WS02004406WS02004407        0.01      0.01      0.32      0.01         0.01
  WS02004405WS02004406        0.32      0.41      0.32      1.06         0.32
  WS02004404WS02004405        0.41      0.50      0.41      6.34         0.41
  WS02004403WS02004404        0.01      0.01      0.50      0.01         0.01
  WS02003072WS02003073        0.01      0.01      0.01      6.12         0.01
  HS02004480HS02004478        0.01      0.01      0.01      0.41         0.01
  YS02001759YS02001757        6.15      6.15      6.19      0.01         0.01
  YS02001762YS02001759        6.14      6.14      6.15      0.01         0.01
  YS02001765YS02001762        6.13      6.13      6.14      0.01         0.01
  YS02001770YS02001767        6.12      6.13      6.12      0.43         0.80
  YS02001774YS02001770        6.11      6.11      6.14      0.01         0.01
  YS02001779YS02001774        5.96      5.96      6.14      0.01         0.01
  YS02001649YS02001757        6.15      6.15      6.19      0.01         0.01
  YS02001767YS02001765        6.12      6.12      6.13      0.01         0.01
  YS02006561YS02001783        0.60      0.60      1.44      0.01         0.01
  YS02001783YS02001784        1.44      1.44      1.50      1.33         1.16
  YS02001784YS02001785        1.44      1.50      1.44      2.22         1.44
  YS02001788YS02001790        1.44      1.44      2.83      0.01         0.01
  YS02001790YS02001791        2.83      2.83      2.96      0.01         0.03
  YS02001791YS02001793        2.96      2.96      3.22      0.01         0.01
  YS02001910YS02001907        1.19      1.19      1.72      0.01         0.01
  YS02001786YS02001788        1.44      1.44      1.44      1.86         1.44
  YS02001915YS02001910        0.89      0.89      1.19      0.01         0.01
  YS02001918YS02001915        0.01      0.01      0.89      0.01         0.01
  YS02001923YS02001920        0.01      0.01      0.25      0.01         0.01
  YS02001920YS02001918        0.01      0.01      0.25      0.01         0.01
  YS02001629YS02163301        6.10      6.10      6.11      0.01         0.01
  YS02001619YS02001622        5.78      5.78      5.82      0.01         0.01
  YS02001622YS02001625        5.82      5.82      6.09      0.01         0.01
  YS02001625YS02001629        5.80      5.80      6.09      0.01         0.01
  YS02163301YS02001633        6.11      6.11      6.12      0.01         0.01
  YS02163601YS02164001        6.12      6.12      6.15      0.01         0.01
  YS02164001YS02001641        6.12      6.12      6.13      0.01         0.03
  YS02001641YS02001644        6.13      6.13      6.13      1.40         1.38
  YS02001647YS02001649        6.07      6.07      6.15      0.01         0.01
  YS02006553YS02006556        1.42      1.42      1.77      0.01         0.01
  YS02006556YS02006558        1.59      1.59      1.83      0.01         0.01
  YS02001907YS02006553        2.23      2.23      2.41      0.01         0.01
  YS02006558YS02006561        1.04      1.37      1.04      2.10         1.04
  YS02001633YS02163601        6.12      6.12      6.15      0.01         0.01
  YS02001644YS02001647        6.07      6.07      6.13      0.01         0.01
  YS02001745YS02001748        0.01      0.01      5.58      0.01         0.01
  YS02001748YS02001751        5.66      5.66      5.76      0.01         0.01
  YS02001751YS02001754        5.76      5.76      5.97      0.01         0.01
  YS02001754YS02001757        6.04      6.04      6.19      0.01         0.01
  YS02001882YS02001884        0.92      0.92      0.97      0.01         0.01
  YS02001884YS02001887        1.05      1.05      1.09      0.01         0.01
  YS02001890YS02001895        0.86      0.86      1.20      0.01         0.01
  YS02001895YS02001898        0.83      0.83      0.86      0.01         0.01
  YS02001898YS02001901        0.88      0.88      1.04      0.01         0.01
  YS02001901YS02001904        1.01      1.01      1.04      0.01         0.01
  YS02001904YS02001907        1.00      1.00      1.79      0.01         0.01
  YS02001887YS02001890        1.12      1.12      1.16      0.01         0.01
  YS02001652YS02001649        6.07      6.07      6.15      0.01         0.01
  YS02001655YS02001652        5.81      5.81      6.03      0.01         0.01
  YS02001658YS02001655        5.63      5.63      5.81      0.01         0.01
  YS02001661YS02001658        0.23      0.23      5.63      0.01         0.01
  YS02001664YS02001661        0.01      0.01      1.24      0.01         0.01
  YS02001793JiankangQianchi        3.15      3.15      4.10      0.01         0.01
  YS02001757CaochengTiaoxuchi        5.45      5.45      6.19      0.01         0.01
  
  
  ***************
  Pumping Summary
  ***************
  
  ---------------------------------------------------------------------------------------------------------
                                                  Min       Avg       Max     Total     Power    % Time Off
                        Percent   Number of      Flow      Flow      Flow    Volume     Usage    Pump Curve
  Pump                 Utilized   Start-Ups       LPS       LPS       LPS  10^6 ltr     Kw-hr    Low   High
  ---------------------------------------------------------------------------------------------------------
  CC-Pump-1               80.38           1      0.00    199.26    200.00     4.510      4.63    0.0    6.6
  CC-Pump-2                0.00           0      0.00      0.00      0.00     0.000      0.00    0.0    0.0
  JK-Pump-1              100.00           1      0.00    236.50    300.00     5.701     49.92    0.0    0.0
  JK-Pump-2                0.00           0      0.00      0.00      0.00     0.000      0.00    0.0    0.0
  XR-Pump-1                4.27           1      0.00     88.22     95.00     0.086      1.01    0.0    0.0
  XR-Pump-2               97.86           1      0.00     94.78     95.00     2.593     14.85    0.0    0.0
  XR-Pump-3                4.27           1      0.00     88.22     95.00     0.086      1.01    0.0    0.0
  XR-Pump-4               97.86           1      0.00     94.78     95.00     2.593     14.85    0.0    0.0
  

  Analysis begun on:  Wed Jan  5 17:11:07 2022
  Analysis ended on:  Wed Jan  5 17:11:15 2022
  Total elapsed time: 00:00:08