
  EPA STORM WATER MANAGEMENT MODEL - VERSION 5.1 (Build 5.3.0.dev0)
  --------------------------------------------------------------

  WARNING 04: minimum elevation drop used for Conduit WS02004404WS02004405
  WARNING 03: negative offset ignored for Link YS02001904YS02001907
  
  *********************************************************
  NOTE: The summary statistics displayed in this report are
  based on results found at every computational time step,  
  not just on results from each reporting time step.
  *********************************************************
  
  ****************
  Analysis Options
  ****************
  Flow Units ............... LPS
  Process Models:
    Rainfall/Runoff ........ YES
    RDII ................... NO
    Snowmelt ............... NO
    Groundwater ............ NO
    Flow Routing ........... YES
    Ponding Allowed ........ NO
    Water Quality .......... NO
  Infiltration Method ...... HORTON
  Flow Routing Method ...... DYNWAVE
  Surcharge Method ......... EXTRAN
  Starting Date ............ 08/28/2015 08:00:00
  Ending Date .............. 08/28/2015 15:50:00
  Antecedent Dry Days ...... 8.0
  Report Time Step ......... 00:01:00
  Wet Time Step ............ 00:01:00
  Dry Time Step ............ 00:01:00
  Routing Time Step ........ 5.00 sec
  Variable Time Step ....... YES
  Maximum Trials ........... 8
  Number of Threads ........ 4
  Head Tolerance ........... 0.001500 m
  
  
  **************************        Volume         Depth
  Runoff Quantity Continuity     hectare-m            mm
  **************************     ---------       -------
  Total Precipitation ......         6.144        13.452
  Evaporation Loss .........         0.000         0.000
  Infiltration Loss ........         1.572         3.442
  Surface Runoff ...........         3.480         7.619
  Final Storage ............         1.093         2.393
  Continuity Error (%) .....        -0.016
  
  
  **************************        Volume        Volume
  Flow Routing Continuity        hectare-m      10^6 ltr
  **************************     ---------     ---------
  Dry Weather Inflow .......         0.616         6.165
  Wet Weather Inflow .......         3.479        34.790
  Groundwater Inflow .......         0.000         0.000
  RDII Inflow ..............         0.000         0.000
  External Inflow ..........         0.102         1.024
  External Outflow .........         0.812         8.115
  Flooding Loss ............         2.818        28.183
  Evaporation Loss .........         0.000         0.000
  Exfiltration Loss ........         0.000         0.000
  Initial Stored Volume ....         0.076         0.761
  Final Stored Volume ......         0.643         6.426
  Continuity Error (%) .....         0.037
  
  
  *************************
  Highest Continuity Errors
  *************************
  Node HS02004842 (15.27%)
  Node YS02001884 (11.83%)
  Node YSB1171 (2.79%)
  Node HS02004817 (2.78%)
  Node HS02004901 (2.06%)
  
  
  ***************************
  Time-Step Critical Elements
  ***************************
  Link WS02006252WS02006251 (38.08%)
  Link 3 (35.06%)
  Link WS02006280WS02006229 (7.05%)
  Link YS02006556YS02006558 (6.87%)
  Link WS02006238WS02006235 (3.46%)
  
  
  ********************************
  Highest Flow Instability Indexes
  ********************************
  Link WS02006113WS02006111 (41)
  Link YS02163601YS02164001 (38)
  Link YS02163301YS02001633 (35)
  Link YS02001629YS02163301 (34)
  Link YS02164001YS02001641 (34)
  
  
  *************************
  Routing Time Step Summary
  *************************
  Minimum Time Step           :     0.50 sec
  Average Time Step           :     1.37 sec
  Maximum Time Step           :     5.00 sec
  Percent in Steady State     :    -0.00
  Average Iterations per Step :     4.31
  Percent Not Converging      :    19.91
  
  
  ***************************
  Subcatchment Runoff Summary
  ***************************
  
  ------------------------------------------------------------------------------------------------------------------------------
                            Total      Total      Total      Total     Imperv       Perv      Total       Total     Peak  Runoff
                           Precip      Runon       Evap      Infil     Runoff     Runoff     Runoff      Runoff   Runoff   Coeff
  Subcatchment                 mm         mm         mm         mm         mm         mm         mm    10^6 ltr      LPS
  ------------------------------------------------------------------------------------------------------------------------------
  sub0                      13.45       0.00       0.00       0.89      11.25       0.05      11.30        0.01     3.67   0.840
  sub1                      13.45       0.00       0.00       1.45      10.71       0.03      10.74        0.07    24.31   0.799
  sub2                      13.45       0.00       0.00       4.95       7.56       0.02       7.58        0.07    22.93   0.564
  sub3                      13.45       0.00       0.00       4.96       7.52       0.02       7.54        0.17    51.30   0.560
  sub4                      13.45       0.00       0.00       1.46      10.54       0.02      10.56        0.22    61.94   0.785
  sub5                      13.45       0.00       0.00       0.91      11.19       0.03      11.22        0.13    43.21   0.834
  sub7                      13.45       0.00       0.00       1.17      10.98       0.04      11.03        0.04    13.69   0.820
  sub8                      13.45       0.00       0.00       1.17      10.97       0.04      11.01        0.07    25.15   0.819
  sub9                      13.45       0.00       0.00       1.17      10.97       0.04      11.01        0.05    18.81   0.818
  sub10                     13.45       0.00       0.00       1.04      11.08       0.03      11.11        0.12    42.29   0.826
  sub11                     13.45       0.00       0.00       1.04      11.10       0.04      11.14        0.13    46.68   0.828
  sub12                     13.45       0.00       0.00       1.69      10.51       0.06      10.58        0.09    35.94   0.786
  sub14                     13.45       0.00       0.00       1.17      10.97       0.04      11.01        0.10    37.02   0.818
  sub15                     13.45       0.00       0.00       4.00       8.43       0.04       8.47        0.15    51.03   0.630
  sub16                     13.45       0.00       0.00       4.38       8.09       0.06       8.15        0.09    32.58   0.606
  sub17                     13.45       0.00       0.00       4.25       8.21       0.06       8.27        0.07    26.73   0.615
  sub22                     13.45       0.00       0.00       5.74       6.88       0.04       6.92        0.44   159.06   0.514
  sub23                     13.45       0.00       0.00       4.93       7.60       0.05       7.65        0.36   133.95   0.569
  sub60                     13.45       0.00       0.00       1.61       8.73       0.00       8.74        2.65   387.96   0.649
  sub61                     13.45       0.00       0.00       2.28       8.88       0.00       8.88        2.74   483.52   0.660
  sub62                     13.45       0.00       0.00       1.07       9.65       0.00       9.66        2.97   496.42   0.718
  sub63                     13.45       0.00       0.00       3.90       7.77       0.00       7.77        2.35   446.68   0.578
  sub64                     13.45       0.00       0.00       2.01       8.38       0.00       8.38        2.55   368.35   0.623
  sub65                     13.45       0.00       0.00       1.75       8.52       0.00       8.52        2.62   373.60   0.634
  sub66                     13.45       0.00       0.00       3.90       7.19       0.00       7.19        2.21   337.96   0.535
  sub67                     13.45       0.00       0.00       1.07      10.19       0.01      10.19        3.15   622.58   0.758
  sub68                     13.45       0.00       0.00       1.88       9.34       0.01       9.34        2.87   531.38   0.694
  sub69                     13.45       0.00       0.00       2.01       9.68       0.01       9.69        2.26   503.32   0.720
  sub70                     13.45       9.89       0.00       7.67      12.93       0.26      13.20        3.02   423.72   0.565
  sub71                     13.45       0.00       0.00       1.07       9.40       0.00       9.40        2.22   347.35   0.699
  sub72                     13.45       0.00       0.00       0.94       7.49       0.00       7.50        1.53   163.23   0.557
  sub73                     13.45      12.84       0.00       8.67      14.26       0.27      14.53        3.41   375.92   0.552
  sub74                     13.45       0.00       0.00      10.09       2.88       0.00       2.89        1.15   273.25   0.215
  
  
  ******************
  Node Depth Summary
  ******************
  
  ---------------------------------------------------------------------------------
                                 Average  Maximum  Maximum  Time of Max    Reported
                                   Depth    Depth      HGL   Occurrence   Max Depth
  Node                 Type       Meters   Meters   Meters  days hr:min      Meters
  ---------------------------------------------------------------------------------
  WS02001211           JUNCTION     0.45     0.61     5.45     0  03:08        0.61
  WS02001212           JUNCTION     0.21     0.38     5.44     0  03:08        0.38
  WS02001213           JUNCTION     0.45     0.67     5.43     0  03:07        0.67
  WS02003069           JUNCTION     0.30     0.56     5.14     0  03:07        0.56
  WS02003072           JUNCTION     0.37     0.62     4.99     0  03:07        0.62
  WS02003073           JUNCTION     0.21     0.38     4.44     0  03:08        0.38
  WS02003060           JUNCTION     0.27     0.49     5.42     0  03:06        0.49
  WS02003066           JUNCTION     0.20     0.35     5.90     0  03:05        0.35
  WS02003059           JUNCTION     0.52     0.74     5.43     0  03:06        0.74
  WS02003067           JUNCTION     0.50     0.77     6.09     0  03:05        0.77
  WS02004401           JUNCTION     0.59     1.07     7.07     0  03:03        1.07
  WS02004402           JUNCTION     0.62     1.08     7.04     0  03:03        1.08
  WS02004403           JUNCTION     0.65     1.07     7.00     0  03:03        1.07
  WS02004404           JUNCTION     0.72     1.13     6.98     0  03:03        1.13
  WS02004406           JUNCTION     0.73     1.09     6.92     0  03:03        1.08
  WS02004409           JUNCTION     0.40     0.82     6.59     0  03:04        0.82
  WS02004410           JUNCTION     0.43     0.83     6.55     0  03:04        0.83
  WS02004411           JUNCTION     0.44     0.82     6.50     0  03:04        0.82
  WS02004412           JUNCTION     0.46     0.81     6.45     0  03:04        0.81
  WS02004413           JUNCTION     0.62     0.96     6.43     0  03:05        0.96
  WS02004405           JUNCTION     0.72     1.11     6.96     0  03:03        1.11
  WS02006109           JUNCTION     0.67     1.21     7.83     0  03:02        1.19
  WS02006110           JUNCTION     0.67     1.07     7.66     0  03:02        1.07
  WS02006111           JUNCTION     0.19     0.54     7.24     0  03:03        0.53
  WS02006112           JUNCTION     0.75     1.34     7.22     0  03:03        1.33
  WS02006113           JUNCTION     0.28     0.57     7.46     0  03:03        0.57
  WS02006115           JUNCTION     0.48     1.02     7.16     0  03:03        1.02
  WS02006116           JUNCTION     0.57     1.08     7.12     0  03:03        1.08
  WS02006230           JUNCTION     0.61     1.30     8.05     0  03:02        1.30
  WS02006231           JUNCTION     0.38     0.94     8.06     0  03:02        0.92
  WS02006232           JUNCTION     0.50     1.03     8.07     0  03:02        1.02
  WS02006234           JUNCTION     0.40     0.91     8.07     0  03:02        0.90
  WS02006235           JUNCTION     0.42     0.91     8.07     0  03:02        0.90
  WS02006238           JUNCTION     0.44     0.93     8.08     0  03:02        0.93
  WS02006240           JUNCTION     0.33     0.79     8.08     0  03:02        0.78
  WS02006242           JUNCTION     0.37     0.82     8.09     0  03:02        0.82
  WS02006243           JUNCTION     0.25     0.68     8.10     0  02:54        0.68
  WS02006245           JUNCTION     0.24     0.63     8.11     0  02:52        0.63
  WS02006247           JUNCTION     0.25     0.63     8.13     0  02:52        0.63
  WS02006248           JUNCTION     0.21     0.55     8.14     0  02:52        0.55
  WS02006249           JUNCTION     0.24     0.56     8.16     0  02:51        0.56
  WS02006239           JUNCTION     0.39     0.86     8.07     0  03:02        0.86
  WS02006251           JUNCTION     0.22     0.53     8.20     0  02:51        0.53
  WS02006252           JUNCTION     0.17     0.35     8.59     0  02:40        0.35
  WS02006253           JUNCTION     0.25     0.56     8.20     0  02:51        0.56
  WS02006256           JUNCTION     0.85     1.14     8.07     0  03:00        1.14
  WS02004138           JUNCTION     0.06     0.14     7.39     0  07:00        0.14
  WS02004407           JUNCTION     0.18     0.36     6.67     0  03:03        0.36
  WS02006228           JUNCTION     0.66     1.32     7.97     0  03:02        1.31
  WS02006229           JUNCTION     0.64     1.34     8.04     0  03:02        1.34
  WS02006280           JUNCTION     0.08     0.24     8.52     0  03:02        0.24
  WS02006284           JUNCTION     0.38     0.63     9.02     0  03:02        0.62
  WS02006287           JUNCTION     0.12     0.37     9.32     0  03:02        0.37
  WSF200               JUNCTION     0.18     0.36     5.60     0  03:05        0.36
  HS02004901           JUNCTION     0.14     0.35    10.17     0  03:01        0.35
  HS02004881           JUNCTION     0.01     0.05     9.08     0  03:01        0.05
  HS02004876           JUNCTION     0.05     0.15     9.18     0  03:01        0.15
  HS02004870           JUNCTION     0.02     0.09     9.37     0  03:01        0.09
  HS02004862           JUNCTION     0.03     0.10     9.49     0  03:01        0.10
  HS02004856           JUNCTION     0.08     0.15     9.57     0  03:01        0.15
  HS02004852           JUNCTION     0.01     0.07     9.58     0  03:02        0.07
  HS02004848           JUNCTION     0.01     0.06     9.67     0  03:01        0.06
  HS02004842           JUNCTION     0.33     0.40     9.67     0  03:01        0.40
  HS02004837           JUNCTION     0.03     0.09     9.67     0  03:01        0.09
  HS02004830           JUNCTION     0.05     0.10     9.57     0  03:01        0.10
  HS02004824           JUNCTION     0.03     0.11     9.51     0  03:02        0.11
  HS02004817           JUNCTION     0.45     0.67     9.52     0  03:02        0.67
  HS02004807           JUNCTION     0.14     0.34     9.51     0  03:02        0.34
  HS02004802           JUNCTION     0.17     0.38     9.50     0  03:02        0.38
  HS02004799           JUNCTION     0.14     0.43     9.65     0  03:01        0.43
  HS02004792           JUNCTION     0.04     0.20     9.72     0  03:01        0.19
  HS02004788           JUNCTION     0.03     0.14    10.04     0  03:02        0.14
  HS02004785           JUNCTION     0.06     0.23    10.13     0  03:02        0.23
  HS02004777           JUNCTION     0.16     0.37    10.17     0  03:01        0.37
  HS02004770           JUNCTION     0.13     0.34    10.17     0  03:01        0.34
  HS02004480           JUNCTION     0.10     0.35     9.59     0  03:01        0.35
  HS02004479           JUNCTION     0.14     0.39     9.60     0  03:01        0.39
  HS02004478           JUNCTION     0.07     0.26     9.48     0  03:01        0.26
  YS02001745           JUNCTION     0.69     0.91     8.43     0  03:22        0.91
  YS02001748           JUNCTION     1.07     1.87     8.95     0  02:44        1.35
  YS02001751           JUNCTION     1.24     1.83     8.71     0  02:44        1.55
  YS02001754           JUNCTION     1.48     1.88     8.49     0  02:44        1.82
  YS02001762           JUNCTION     1.68     2.04     8.44     0  03:14        2.03
  YS02001765           JUNCTION     1.63     1.99     8.44     0  03:25        1.98
  YS02001767           JUNCTION     1.60     1.95     8.44     0  03:23        1.93
  YS02001770           JUNCTION     1.59     1.93     8.42     0  03:22        1.91
  YS02001774           JUNCTION     1.65     1.98     8.41     0  03:23        1.97
  YS02001779           JUNCTION     1.41     1.68     8.37     0  02:44        1.68
  YS02001882           JUNCTION     0.62     1.63     8.35     0  03:00        1.62
  YS02001884           JUNCTION     0.72     1.73     8.35     0  03:01        1.73
  YS02001759           JUNCTION     1.71     2.08     8.44     0  03:25        2.07
  YS02001887           JUNCTION     0.79     1.81     8.35     0  02:59        1.80
  YS02001890           JUNCTION     0.82     1.81     8.32     0  02:50        1.81
  YS02001898           JUNCTION     0.59     1.57     8.30     0  02:50        1.56
  YS02001901           JUNCTION     0.71     1.68     8.29     0  03:06        1.68
  YS02001904           JUNCTION     0.68     1.64     8.27     0  02:51        1.63
  YS02001907           JUNCTION     1.01     1.96     8.25     0  02:50        1.96
  YS02001910           JUNCTION     0.80     1.79     8.30     0  02:52        1.78
  YS02001915           JUNCTION     0.61     1.61     8.32     0  02:52        1.58
  YS02001918           JUNCTION     0.36     1.29     8.36     0  02:52        1.29
  YS02001619           JUNCTION     1.21     1.61     8.54     0  02:41        1.58
  YS02001629           JUNCTION     1.54     1.85     8.40     0  02:40        1.84
  YS02001641           JUNCTION     1.64     1.94     8.38     0  02:44        1.93
  YS02001644           JUNCTION     1.64     1.92     8.35     0  02:44        1.92
  YS02001652           JUNCTION     1.50     2.15     8.74     0  02:56        1.87
  YS02001655           JUNCTION     1.27     2.20     9.05     0  02:56        1.67
  YS02001920           JUNCTION     0.45     1.37     8.38     0  02:52        1.36
  YS02001923           JUNCTION     0.29     1.13     8.39     0  02:52        1.13
  YS02001926           JUNCTION     0.31     0.97     8.42     0  02:52        0.97
  YS02001929           JUNCTION     0.19     0.75     8.45     0  02:52        0.72
  YS02001658           JUNCTION     1.01     2.23     9.38     0  02:56        1.40
  YS02001661           JUNCTION     0.80     2.29     9.70     0  02:56        1.23
  YS02001664           JUNCTION     0.36     0.57     8.49     0  04:18        0.56
  YS02001622           JUNCTION     1.23     1.62     8.52     0  02:41        1.55
  YS02001633           JUNCTION     1.63     1.99     8.44     0  02:43        1.94
  YS02001649           JUNCTION     1.68     2.05     8.44     0  02:51        2.05
  YS02001757           JUNCTION     1.80     2.19     8.45     0  03:22        2.17
  YS02001895           JUNCTION     0.59     1.57     8.31     0  03:02        1.56
  YS02001625           JUNCTION     1.50     1.78     8.38     0  02:40        1.78
  YS02163301           JUNCTION     1.57     1.92     8.44     0  02:43        1.88
  YS02163601           JUNCTION     1.68     2.03     8.42     0  02:43        1.98
  YS02164001           JUNCTION     1.62     1.95     8.41     0  02:43        1.91
  YS02001647           JUNCTION     1.48     1.81     8.42     0  02:54        1.79
  YSB1154              JUNCTION     0.27     0.54     9.60     0  03:01        0.54
  YSB6556              JUNCTION     0.17     0.43     9.60     0  03:02        0.43
  YSB1174              JUNCTION     0.22     0.49     9.60     0  03:01        0.49
  YSB1171              JUNCTION     0.42     0.69     9.60     0  03:01        0.69
  YS02006553           JUNCTION     1.01     1.97     8.25     0  02:59        1.96
  YS02006561           JUNCTION     0.38     1.09     7.75     0  02:51        1.08
  YS02006556           JUNCTION     0.97     1.93     8.24     0  03:00        1.93
  YS02006558           JUNCTION     1.02     1.97     8.24     0  03:00        1.96
  YS02001783           JUNCTION     0.68     1.48     7.62     0  02:51        1.47
  YS02001784           JUNCTION     0.71     1.42     7.49     0  02:51        1.41
  YS02001786           JUNCTION     0.67     1.27     7.30     0  02:51        1.26
  YS02001788           JUNCTION     0.65     1.14     7.11     0  02:59        1.13
  YS02001790           JUNCTION     0.89     1.30     6.94     0  03:05        1.29
  YS02001791           JUNCTION     0.97     1.57     7.04     0  02:25        1.27
  YS02001793           JUNCTION     1.48     1.83     6.66     0  02:25        1.80
  WS02004139           JUNCTION     0.38     0.54     5.45     0  03:09        0.54
  WSC                  OUTFALL      0.21     0.38     1.05     0  03:08        0.38
  3                    OUTFALL      0.04     0.14     6.14     0  03:00        0.14
  4                    OUTFALL      0.00     0.06     7.06     0  02:51        0.06
  5                    OUTFALL      0.00     0.00     5.00     0  00:00        0.00
  JK-storage           STORAGE      5.03     5.80     6.60     0  02:26        5.80
  CC-storage           STORAGE      1.06     1.42     8.42     0  03:22        1.42
  XR-storage           STORAGE      7.67     7.72     5.72     0  00:42        7.72
  
  
  *******************
  Node Inflow Summary
  *******************
  
  -------------------------------------------------------------------------------------------------
                                  Maximum  Maximum                  Lateral       Total        Flow
                                  Lateral    Total  Time of Max      Inflow      Inflow     Balance
                                   Inflow   Inflow   Occurrence      Volume      Volume       Error
  Node                 Type           LPS      LPS  days hr:min    10^6 ltr    10^6 ltr     Percent
  -------------------------------------------------------------------------------------------------
  WS02001211           JUNCTION      7.35   187.98     0  07:00       0.207        1.61       0.725
  WS02001212           JUNCTION      0.00   180.91     0  07:01           0        1.61       0.211
  WS02001213           JUNCTION      0.00   179.16     0  07:01           0        1.62       0.598
  WS02003069           JUNCTION      0.32   871.74     0  03:06     0.00902        7.15       0.103
  WS02003072           JUNCTION      0.00   871.75     0  03:07           0        7.15       0.164
  WS02003073           JUNCTION      1.82   873.71     0  03:08      0.0514        7.19       0.157
  WS02003060           JUNCTION     16.53   871.18     0  03:06       0.466        7.19       0.097
  WS02003066           JUNCTION      0.00   764.86     0  03:05           0        5.13       0.036
  WS02003059           JUNCTION      0.00   178.23     0  07:02           0        1.63       1.167
  WS02003067           JUNCTION      0.00   764.50     0  03:05           0        5.14       0.096
  WS02004401           JUNCTION      0.00   767.73     0  03:03           0        5.25       0.215
  WS02004402           JUNCTION      0.00   767.68     0  03:03           0        5.24       0.217
  WS02004403           JUNCTION      0.00   767.69     0  03:03           0        5.23       0.210
  WS02004404           JUNCTION      0.16   767.92     0  03:03     0.00457        5.22       0.172
  WS02004406           JUNCTION      0.00   767.98     0  03:03           0         5.2       0.425
  WS02004409           JUNCTION      0.00   767.61     0  03:03           0        5.18       0.084
  WS02004410           JUNCTION      0.00   766.28     0  03:04           0        5.17       0.120
  WS02004411           JUNCTION      0.00   765.31     0  03:04           0        5.17       0.143
  WS02004412           JUNCTION      0.00   764.66     0  03:04           0        5.16       0.181
  WS02004413           JUNCTION      0.00   764.50     0  03:05           0        5.15       0.308
  WS02004405           JUNCTION      0.04   767.97     0  03:03     0.00107        5.22       0.259
  WS02006109           JUNCTION      1.23   752.81     0  03:02      0.0347        5.24       0.183
  WS02006110           JUNCTION      0.00   752.78     0  03:02           0        5.23       0.182
  WS02006111           JUNCTION      0.00   749.43     0  03:02           0        5.22       0.018
  WS02006112           JUNCTION     26.73   766.73     0  03:03      0.0709        5.29       0.343
  WS02006113           JUNCTION      0.00   752.75     0  03:02           0        5.22       0.039
  WS02006115           JUNCTION      0.00   766.70     0  03:03           0        5.27       0.156
  WS02006116           JUNCTION      0.00   767.42     0  03:03           0        5.26       0.134
  WS02006230           JUNCTION     10.28   313.60     0  06:52        0.29        3.13       0.150
  WS02006231           JUNCTION      0.00   303.34     0  06:52           0        2.83      -0.053
  WS02006232           JUNCTION      0.00   303.37     0  06:52           0        2.84       0.160
  WS02006234           JUNCTION      0.00   303.45     0  06:51           0        2.83      -0.121
  WS02006235           JUNCTION      0.00   303.56     0  06:51           0        2.92       0.170
  WS02006238           JUNCTION      0.00   229.93     0  02:50           0        1.62      -0.002
  WS02006240           JUNCTION      0.00   246.62     0  02:44           0        1.54       0.026
  WS02006242           JUNCTION      0.00   258.05     0  02:44           0        1.51       0.049
  WS02006243           JUNCTION      0.00   266.30     0  02:45           0        1.48      -0.501
  WS02006245           JUNCTION      0.00   270.49     0  02:45           0        1.48       0.270
  WS02006247           JUNCTION      0.00   273.83     0  02:46           0        1.48       0.031
  WS02006248           JUNCTION      0.00   276.75     0  02:46           0        1.48      -0.098
  WS02006249           JUNCTION      0.00   280.20     0  02:47           0        1.49       0.192
  WS02006239           JUNCTION      0.00   232.96     0  02:44           0        1.58      -0.104
  WS02006251           JUNCTION      0.08   285.07     0  02:50     0.00217         1.5      -0.021
  WS02006252           JUNCTION      0.00   200.00     0  06:10           0        1.08       0.014
  WS02006253           JUNCTION      3.67   134.78     0  03:01     0.00915       0.419       0.061
  WS02006256           JUNCTION      0.00   300.00     0  03:20           0        2.29       0.085
  WS02004138           JUNCTION      0.00   189.86     0  01:50           0         1.4       0.003
  WS02004407           JUNCTION      0.00   767.98     0  03:03           0        5.18       0.035
  WS02006228           JUNCTION      0.00   751.55     0  03:02           0        5.21       0.124
  WS02006229           JUNCTION      0.00   751.79     0  03:02           0        5.22       0.154
  WS02006280           JUNCTION      0.00   611.97     0  03:02           0         2.1       0.003
  WS02006284           JUNCTION      0.10   611.07     0  03:02      0.0027         2.1       0.059
  WS02006287           JUNCTION      0.00   609.84     0  03:02           0         2.1       0.034
  WSF200               JUNCTION      0.00   764.97     0  03:05           0        5.13       0.022
  HS02004901           JUNCTION     32.58    32.58     0  03:01      0.0853      0.0856       2.107
  HS02004881           JUNCTION     13.69   131.68     0  03:01      0.0372       0.403       0.019
  HS02004876           JUNCTION     24.31   119.37     0  03:01      0.0714       0.367       0.153
  HS02004870           JUNCTION     25.15    96.63     0  03:01      0.0703       0.295       0.038
  HS02004862           JUNCTION     23.13    73.48     0  03:01      0.0763       0.225       0.079
  HS02004856           JUNCTION     18.81    51.87     0  03:01      0.0529        0.15       0.971
  HS02004852           JUNCTION      0.00    35.11     0  03:01           0      0.0975       0.061
  HS02004848           JUNCTION     51.30    51.30     0  03:01        0.17        0.17       0.030
  HS02004842           JUNCTION      0.00    15.11     0  03:01           0      0.0852      18.028
  HS02004837           JUNCTION     48.64    62.30     0  03:01       0.302       0.374       0.216
  HS02004830           JUNCTION      0.15    61.39     0  03:01     0.00423       0.364       0.340
  HS02004824           JUNCTION     61.99   121.76     0  03:01       0.222       0.584       0.093
  HS02004817           JUNCTION      0.60   117.99     0  03:02      0.0169       0.601       2.855
  HS02004807           JUNCTION     46.68   158.05     0  03:01       0.129       0.713       0.602
  HS02004802           JUNCTION      0.00   156.92     0  03:03           0       0.709       0.572
  HS02004799           JUNCTION     37.02   389.11     0  03:01       0.105        1.19       0.208
  HS02004792           JUNCTION    159.34   356.45     0  03:01       0.445        1.08       0.038
  HS02004788           JUNCTION     52.70   202.58     0  03:02       0.193       0.638       0.062
  HS02004785           JUNCTION      0.15   157.28     0  03:01     0.00423       0.447       0.111
  HS02004777           JUNCTION      0.03   160.02     0  03:01    0.000846       0.447       1.175
  HS02004770           JUNCTION    133.95   163.77     0  03:01       0.365       0.449       0.699
  HS02004480           JUNCTION      0.00   456.70     0  03:01           0         1.4       0.084
  HS02004479           JUNCTION      0.00    72.19     0  03:02           0       0.228       0.322
  HS02004478           JUNCTION      0.00   609.31     0  03:02           0         2.1       0.019
  YS02001745           JUNCTION    387.96   387.96     0  03:01        2.65        2.65       0.429
  YS02001748           JUNCTION      0.04   427.84     0  02:44     0.00127        2.64       0.880
  YS02001751           JUNCTION      0.01   399.62     0  03:01     0.00031        2.61       0.904
  YS02001754           JUNCTION      0.26   399.83     0  03:01     0.00733         2.6       0.968
  YS02001762           JUNCTION      0.00   364.94     0  02:52           0        1.76       1.215
  YS02001765           JUNCTION      0.00   365.12     0  02:52           0        1.76       1.402
  YS02001767           JUNCTION      0.54   365.31     0  02:52      0.0151        1.78       2.029
  YS02001770           JUNCTION    496.57   547.57     0  03:24        2.97        3.53       0.892
  YS02001774           JUNCTION      0.00   548.08     0  03:25           0        2.29       1.116
  YS02001779           JUNCTION      0.01   548.41     0  03:24    0.000141        2.26       0.669
  YS02001882           JUNCTION      0.00    29.67     0  02:46           0      0.0172      15.509
  YS02001884           JUNCTION      0.00    38.29     0  02:44           0      0.0531      13.419
  YS02001759           JUNCTION    483.56   726.77     0  02:53        2.74        3.91       0.596
  YS02001887           JUNCTION    623.03   623.03     0  03:01        3.16        3.19       0.271
  YS02001890           JUNCTION      0.00   623.18     0  03:01           0        3.14       0.301
  YS02001898           JUNCTION      0.00   516.98     0  03:06           0        3.09       0.107
  YS02001901           JUNCTION      0.00   516.83     0  03:06           0        3.09       0.233
  YS02001904           JUNCTION      0.00   516.81     0  03:05           0        3.08       0.207
  YS02001907           JUNCTION      0.00  1057.40     0  03:01           0        6.88       0.355
  YS02001910           JUNCTION      0.00   541.43     0  03:01           0        3.81       0.314
  YS02001915           JUNCTION    347.37   541.35     0  03:01        2.22        3.85       0.165
  YS02001918           JUNCTION      0.00   269.83     0  02:52           0        1.65       0.123
  YS02001619           JUNCTION    337.96   337.96     0  03:01        2.21        2.21       0.553
  YS02001629           JUNCTION      0.00   210.34     0  02:48           0        1.56       1.888
  YS02001641           JUNCTION      0.00   444.02     0  02:48           0        4.08       0.514
  YS02001644           JUNCTION    368.39  1303.70     0  03:23        2.55        10.9       0.238
  YS02001652           JUNCTION      0.00   481.84     0  03:01           0         2.3       1.030
  YS02001655           JUNCTION      0.15   481.39     0  03:01     0.00434        2.32       1.095
  YS02001920           JUNCTION      2.87   270.00     0  02:52      0.0809        1.64       0.189
  YS02001923           JUNCTION      0.04   258.71     0  02:53     0.00106        1.54       0.052
  YS02001926           JUNCTION      0.05   192.79     0  02:53     0.00147        1.53       0.221
  YS02001929           JUNCTION    163.23   163.23     0  03:01        1.53        1.53       0.039
  YS02001658           JUNCTION      0.00   567.47     0  02:41           0        2.35       1.041
  YS02001661           JUNCTION      0.00   717.63     0  02:55           0        2.54       0.094
  YS02001664           JUNCTION    446.68   446.68     0  03:01        2.35        2.54       0.238
  YS02001622           JUNCTION      0.00   338.22     0  03:01           0        2.19       1.474
  YS02001633           JUNCTION    373.80   443.73     0  02:48        2.63        4.13       0.777
  YS02001649           JUNCTION      0.00   952.34     0  02:49           0        6.28       0.597
  YS02001757           JUNCTION      0.00  1845.59     0  02:49           0           8       1.169
  YS02001895           JUNCTION      0.00   516.81     0  03:06           0        3.09       0.162
  YS02001625           JUNCTION      0.00   338.01     0  03:01           0        2.16       1.810
  YS02163301           JUNCTION      0.00   210.41     0  02:48           0        1.53       1.582
  YS02163601           JUNCTION      0.11   443.82     0  02:48      0.0031         4.1       0.741
  YS02164001           JUNCTION      0.00   443.83     0  02:48           0        4.08       0.494
  YS02001647           JUNCTION      0.00   676.85     0  02:48           0        5.53       0.517
  YSB1154              JUNCTION     43.21    43.21     0  03:01       0.127       0.128       1.144
  YSB6556              JUNCTION      0.00    41.77     0  03:01           0       0.129       0.980
  YSB1174              JUNCTION     35.94    35.94     0  03:01      0.0924      0.0931       1.402
  YSB1171              JUNCTION      0.00    73.32     0  03:01           0       0.227       2.865
  YS02006553           JUNCTION      0.00   672.05     0  03:32           0        6.12       0.256
  YS02006561           JUNCTION      0.00   968.99     0  03:00           0        8.97       0.006
  YS02006556           JUNCTION      0.00   671.90     0  03:32           0        6.13       0.179
  YS02006558           JUNCTION    532.26   969.53     0  03:00         2.9           9       0.062
  YS02001783           JUNCTION      0.00   969.01     0  03:00           0        8.97       0.081
  YS02001784           JUNCTION      1.06   970.14     0  03:00      0.0299        8.99       0.119
  YS02001786           JUNCTION      0.06   970.17     0  03:01     0.00159        8.98       0.150
  YS02001788           JUNCTION      0.07   970.16     0  03:00       0.002        8.97       0.153
  YS02001790           JUNCTION      0.15   970.35     0  03:01     0.00437        8.96       0.176
  YS02001791           JUNCTION      0.00   970.42     0  03:00           0        8.95       0.163
  YS02001793           JUNCTION      0.00   970.50     0  03:00           0        8.93       0.169
  WS02004139           JUNCTION      0.32   189.35     0  07:00     0.00905        1.41       0.905
  WSC                  OUTFALL       0.00   873.76     0  03:08           0        7.17       0.000
  3                    OUTFALL       0.00   272.11     0  03:00           0       0.929       0.000
  4                    OUTFALL       0.00    33.66     0  02:51           0      0.0115       0.000
  5                    OUTFALL       0.00     0.00     0  00:00           0           0       0.000 ltr
  JK-storage           STORAGE       0.00   970.44     0  03:00           0        9.07       0.222
  CC-storage           STORAGE       0.00  1845.66     0  02:49           0         5.1       1.289
  XR-storage           STORAGE     849.17   849.17     0  03:01        10.2        10.8       0.005
  
  
  **********************
  Node Surcharge Summary
  **********************
  
  Surcharging occurs when water rises above the top of the highest conduit.
  ---------------------------------------------------------------------
                                               Max. Height   Min. Depth
                                   Hours       Above Crown    Below Rim
  Node                 Type      Surcharged         Meters       Meters
  ---------------------------------------------------------------------
  WS02004401           JUNCTION        0.22          0.075        1.585
  WS02004402           JUNCTION        0.25          0.081        1.659
  WS02004403           JUNCTION        0.26          0.074        1.956
  WS02004404           JUNCTION        0.40          0.130        2.650
  WS02004406           JUNCTION        0.35          0.086        2.364
  WS02004405           JUNCTION        0.38          0.112        2.688
  WS02006109           JUNCTION        0.72          0.391        1.429
  WS02006110           JUNCTION        0.50          0.161        1.689
  WS02006112           JUNCTION        0.57          0.339        1.341
  WS02006115           JUNCTION        0.03          0.008        2.242
  WS02006116           JUNCTION        0.07          0.020        2.270
  WS02006230           JUNCTION        0.36          0.222        1.348
  WS02006231           JUNCTION        0.37          0.228        1.302
  WS02006232           JUNCTION        0.51          0.327        1.153
  WS02006234           JUNCTION        0.36          0.189        1.051
  WS02006235           JUNCTION        0.38          0.200        1.090
  WS02006238           JUNCTION        0.40          0.214        1.216
  WS02006240           JUNCTION        0.30          0.076        1.314
  WS02006242           JUNCTION        0.32          0.088        0.732
  WS02006239           JUNCTION        0.34          0.125        1.165
  WS02006228           JUNCTION        0.71          0.486        1.714
  YS02001748           JUNCTION        5.06          0.792        0.398
  YS02001751           JUNCTION        5.20          0.828        0.372
  YS02001754           JUNCTION        5.38          0.827        0.323
  YS02001762           JUNCTION        5.52          1.041        0.109
  YS02001765           JUNCTION        5.49          0.989        0.111
  YS02001767           JUNCTION        5.47          0.947        0.083
  YS02001770           JUNCTION        5.46          0.895        0.025
  YS02001774           JUNCTION        5.51          0.984        0.066
  YS02001779           JUNCTION        5.36          0.680        0.000
  YS02001882           JUNCTION        1.05          0.634        0.196
  YS02001884           JUNCTION        1.08          0.672        0.198
  YS02001759           JUNCTION        5.54          1.077        0.133
  YS02001887           JUNCTION        1.16          0.761        0.189
  YS02001890           JUNCTION        1.19          0.760        0.000
  YS02001898           JUNCTION        1.01          0.537        0.203
  YS02001901           JUNCTION        1.13          0.677        0.193
  YS02001904           JUNCTION        1.11          0.640        0.210
  YS02001907           JUNCTION        1.68          0.950        0.000
  YS02001910           JUNCTION        1.24          0.789        0.311
  YS02001915           JUNCTION        1.03          0.606        0.394
  YS02001918           JUNCTION        0.80          0.292        0.518
  YS02001619           JUNCTION        5.20          0.610        0.000
  YS02001629           JUNCTION        5.22          0.470        0.000
  YS02001641           JUNCTION        5.50          0.944        0.156
  YS02001644           JUNCTION        5.50          0.920        0.000
  YS02001652           JUNCTION        5.41          1.115        0.015
  YS02001655           JUNCTION        5.23          1.200        0.000
  YS02001920           JUNCTION        0.83          0.374        0.766
  YS02001658           JUNCTION        5.09          1.235        0.065
  YS02001661           JUNCTION        0.14          1.221        0.169
  YS02001622           JUNCTION        5.23          0.620        0.000
  YS02001633           JUNCTION        5.49          0.971        0.089
  YS02001649           JUNCTION        5.52          1.050        0.000
  YS02001757           JUNCTION        5.62          1.185        0.025
  YS02001895           JUNCTION        1.02          0.567        0.183
  YS02001625           JUNCTION        5.43          0.780        0.000
  YS02163301           JUNCTION        5.46          0.925        0.105
  YS02163601           JUNCTION        5.53          1.026        0.054
  YS02164001           JUNCTION        5.49          0.953        0.147
  YS02001647           JUNCTION        5.42          0.810        0.090
  YS02006553           JUNCTION        1.76          0.969        0.221
  YS02006561           JUNCTION        0.92          0.291        0.859
  YS02006556           JUNCTION        1.44          0.890        0.460
  YS02006558           JUNCTION        1.41          0.874        0.526
  YS02001783           JUNCTION        1.64          0.680        0.920
  YS02001784           JUNCTION        1.71          0.625        0.865
  YS02001786           JUNCTION        1.64          0.473        0.957
  YS02001788           JUNCTION        1.63          0.336        1.144
  YS02001790           JUNCTION        4.84          0.499        0.658
  YS02001791           JUNCTION        5.24          0.767        1.153
  YS02001793           JUNCTION        5.44          0.825        1.775
  
  
  *********************
  Node Flooding Summary
  *********************
  
  Flooding refers to all water that overflows a node, whether it ponds or not.
  --------------------------------------------------------------------------
                                                             Total   Maximum
                                 Maximum   Time of Max       Flood    Ponded
                        Hours       Rate    Occurrence      Volume     Depth
  Node                 Flooded       LPS   days hr:min    10^6 ltr    Meters
  --------------------------------------------------------------------------
  YS02001779              2.98    548.28      0  03:24       2.242     0.000
  YS02001890              0.23    107.32      0  03:01       0.038     0.000
  YS02001907              0.66    617.42      0  03:01       0.745     0.000
  YS02001619              0.01     10.22      0  02:41       0.000     0.000
  YS02001629              0.01     32.62      0  02:41       0.000     0.000
  YS02001644              5.02   1303.48      0  03:23       9.636     0.000
  YS02001622              0.01      8.58      0  02:41       0.000     0.000
  YS02001649              0.04     49.18      0  02:56       0.001     0.000
  YS02001625              1.16    318.02      0  03:01       0.568     0.000
  JK-storage              4.17    965.85      0  03:10       6.469     0.000
  XR-storage              7.12    754.13      0  03:01       8.483     0.000
  
  
  **********************
  Storage Volume Summary
  **********************
  
  --------------------------------------------------------------------------------------------------
                         Average     Avg  Evap Exfil       Maximum     Max    Time of Max    Maximum
                          Volume    Pcnt  Pcnt  Pcnt        Volume    Pcnt     Occurrence    Outflow
  Storage Unit           1000 m3    Full  Loss  Loss       1000 m3    Full    days hr:min        LPS
  --------------------------------------------------------------------------------------------------
  JK-storage               0.253      87     0     0         0.291     100       0  02:26     300.00
  CC-storage               2.954      19     0     0         3.962      25       0  03:22     237.72
  XR-storage               0.920      99     0     0         0.926     100       0  00:42     189.86
  
  
  ***********************
  Outfall Loading Summary
  ***********************
  
  -----------------------------------------------------------
                         Flow       Avg       Max       Total
                         Freq      Flow      Flow      Volume
  Outfall Node           Pcnt       LPS       LPS    10^6 ltr
  -----------------------------------------------------------
  WSC                  100.00    311.85    873.76       7.175
  3                     55.36    108.08    272.11       0.929
  4                      7.40     10.33     33.66       0.012
  5                      0.00      0.00      0.00       0.000
  -----------------------------------------------------------
  System                40.69    430.26   1010.22       8.115
  
  
  ********************
  Link Flow Summary
  ********************
  
  -----------------------------------------------------------------------------
                                 Maximum  Time of Max   Maximum    Max/    Max/
                                  |Flow|   Occurrence   |Veloc|    Full    Full
  Link                 Type          LPS  days hr:min     m/sec    Flow   Depth
  -----------------------------------------------------------------------------
  WS02003066WSF200     CONDUIT    764.97     0  03:05      3.03    0.13    0.27
  WS02006287WS02006284 CONDUIT    610.97     0  03:02      2.31    0.28    0.37
  WS02006284WS02006280 CONDUIT    611.97     0  03:02      2.55    0.26    0.35
  WS02006280WS02006229 CONDUIT    612.09     0  03:02      4.12    0.13    0.24
  WS02006229WS02006228 CONDUIT    751.55     0  03:02      1.50    2.49    1.00
  WS02006256WS02006235 CONDUIT    149.96     0  00:25      2.14    1.59    1.00
  WS02006253WS02006251 CONDUIT    134.62     0  03:01      0.56    0.40    0.77
  WS02006252WS02006251 CONDUIT    200.34     0  02:40      1.97    0.74    0.76
  WS02006251WS02006249 CONDUIT    280.20     0  02:47      1.00    0.81    0.77
  WS02006249WS02006248 CONDUIT    276.75     0  02:46      1.08    1.52    0.78
  WS02006248WS02006247 CONDUIT    273.83     0  02:46      1.05    0.60    0.83
  WS02006247WS02006245 CONDUIT    270.49     0  02:45      1.02    2.14    0.89
  WS02006245WS02006243 CONDUIT    266.30     0  02:45      1.08    0.79    0.93
  WS02006243WS02006242 CONDUIT    258.05     0  02:44      0.93    0.55    0.98
  WS02006242WS02006240 CONDUIT    246.62     0  02:44      0.82    0.98    1.00
  WS02006240WS02006239 CONDUIT    232.96     0  02:44      0.94    0.73    1.00
  WS02006239WS02006238 CONDUIT    229.93     0  02:50      0.80    0.74    1.00
  WS02006238WS02006235 CONDUIT    233.65     0  06:40      0.75    0.52    1.00
  WS02006235WS02006234 CONDUIT    303.45     0  06:51      0.94    3.20    1.00
  WS02006234WS02006232 CONDUIT    303.37     0  06:52      0.88    0.61    1.00
  WS02006232WS02006231 CONDUIT    303.34     0  06:52      0.93    0.64    1.00
  WS02006231WS02006230 CONDUIT    303.32     0  06:52      1.28    4.60    1.00
  WS02006230WS02006229 CONDUIT    313.57     0  06:53      0.82    6.98    1.00
  WS02006228WS02006109 CONDUIT    751.58     0  03:02      1.50    3.28    1.00
  WS02006116WS02004401 CONDUIT    767.73     0  03:03      0.98    1.06    1.00
  WS02006115WS02006116 CONDUIT    767.42     0  03:03      0.98    0.98    1.00
  WS02006113WS02006111 CONDUIT    749.43     0  03:02      2.59    0.90    0.69
  WS02006112WS02006115 CONDUIT    766.70     0  03:03      0.98    0.45    1.00
  WS02006111WS02006112 CONDUIT    748.87     0  03:03      1.70    0.36    0.83
  WS02006110WS02006113 CONDUIT    752.75     0  03:02      1.65    0.68    0.85
  WS02006109WS02006110 CONDUIT    752.78     0  03:02      1.50    1.45    1.00
  WS02004411WS02004412 CONDUIT    764.66     0  03:04      1.11    1.09    0.82
  WS02004401WS02004402 CONDUIT    767.68     0  03:03      0.98    0.92    1.00
  WS02004413WS02003067 CONDUIT    764.50     0  03:05      1.35    0.33    0.68
  WS02004412WS02004413 CONDUIT    764.50     0  03:05      1.04    0.51    0.89
  WS02004410WS02004411 CONDUIT    765.31     0  03:04      1.11    1.05    0.82
  WS02004409WS02004410 CONDUIT    766.28     0  03:04      1.11    0.99    0.82
  WS02004407WS02004409 CONDUIT    767.61     0  03:03      1.60    0.27    0.59
  WS02004406WS02004407 CONDUIT    767.98     0  03:03      1.35    0.34    0.68
  WS02004405WS02004406 CONDUIT    767.98     0  03:03      0.98    1.51    1.00
  WS02004404WS02004405 CONDUIT    767.93     0  03:03      0.98    7.52    1.00
  WS02004403WS02004404 CONDUIT    767.76     0  03:03      0.98    0.55    1.00
  WS02004402WS02004403 CONDUIT    767.69     0  03:03      0.98    1.10    1.00
  WS02004139WS02001211 CONDUIT    180.63     0  07:00      0.53    0.23    0.44
  WS02004138WS02004139 CONDUIT    189.03     0  07:00      2.39    0.04    0.31
  WS02003067WS02003066 CONDUIT    764.86     0  03:05      1.47    0.25    0.47
  WS02001213WS02003059 CONDUIT    178.23     0  07:02      0.42    0.29    0.70
  WS02001212WS02001213 CONDUIT    179.16     0  07:01      0.97    0.28    0.36
  WS02001211WS02001212 CONDUIT    180.91     0  07:01      0.50    0.14    0.49
  WS02003072WS02003073 CONDUIT    871.89     0  03:08      1.68    1.88    0.47
  WS02003069WS02003072 CONDUIT    871.75     0  03:07      1.58    0.42    0.49
  WS02003060WS02003069 CONDUIT    871.42     0  03:06      1.83    0.34    0.44
  WS02003059WS02003060 CONDUIT    177.97     0  07:03      0.56    0.12    0.62
  HS02004901HS02004770 CONDUIT     32.24     0  03:01      0.09    0.12    0.50
  HS02004876HS02004881 CONDUIT    119.33     0  03:01      1.17    1.27    0.15
  HS02004870HS02004876 CONDUIT     96.14     0  03:01      0.79    0.06    0.17
  HS02004842HS02004848 CONDUIT     15.11     0  03:01      0.07    0.01    0.33
  HS02004837HS02004842 CONDUIT     16.10     0  03:03      0.42    0.01    0.34
  HS02004830HS02004837 CONDUIT     61.24     0  03:01      0.66    0.06    0.13
  HS02004824HS02004830 CONDUIT     60.79     0  03:01      0.63    0.08    0.15
  HS02004817HS02004824 CONDUIT    117.39     0  03:02      0.30    0.05    0.56
  HS02004770HS02004777 CONDUIT    159.99     0  03:01      0.45    0.29    0.51
  HS02004799HS02004480 CONDUIT    387.38     0  03:01      1.00    0.49    0.56
  HS02004792HS02004799 CONDUIT    353.07     0  03:01      1.12    0.22    0.45
  HS02004788HS02004792 CONDUIT    202.14     0  03:02      1.22    0.13    0.24
  HS02004785HS02004788 CONDUIT    156.68     0  03:02      0.85    1.18    0.26
  HS02004777HS02004785 CONDUIT    157.13     0  03:01      0.53    0.19    0.42
  HS02004480HS02004478 CONDUIT    456.75     0  03:01      1.47    1.92    0.44
  HS02004479HS02004480 CONDUIT     74.07     0  03:02      0.22    0.07    0.53
  HS02004862HS02004870 CONDUIT     73.11     0  03:01      0.77    0.08    0.14
  HS02004848HS02004852 CONDUIT     35.11     0  03:01      0.52    0.04    0.10
  HS02004856HS02004862 CONDUIT     51.23     0  03:01      0.58    0.05    0.13
  HS02004852HS02004856 CONDUIT     35.03     0  03:02      0.32    0.04    0.16
  HS02004802HS02004478 CONDUIT    160.69     0  03:04      0.54    0.14    0.45
  HS02004478WS02006287 CONDUIT    609.84     0  03:02      2.03    0.17    0.33
  HS02004817HS02004807 CONDUIT    120.82     0  03:04      0.24    0.07    0.73
  HS02004807HS02004802 CONDUIT    156.92     0  03:03      0.45    0.30    0.51
  YS02001759YS02001757 CONDUIT    726.75     0  02:53      0.93    0.52    1.00
  YS02001762YS02001759 CONDUIT    364.69     0  02:52      0.46    0.42    1.00
  YS02001765YS02001762 CONDUIT    364.94     0  02:52      0.46    0.34    1.00
  YS02001770YS02001767 CONDUIT    364.78     0  02:52      0.46    1.44    1.00
  YS02001774YS02001770 CONDUIT    548.08     0  03:25      0.70    0.35    1.00
  YS02001779YS02001774 CONDUIT    548.41     0  03:24      0.70    0.28    1.00
  YS02001649YS02001757 CONDUIT    952.94     0  02:49      1.21    0.58    1.00
  YS02001767YS02001765 CONDUIT    365.12     0  02:52      0.46    0.46    1.00
  YS02006561YS02001783 CONDUIT    969.01     0  03:00      1.98    0.50    1.00
  YS02001783YS02001784 CONDUIT    969.08     0  03:00      1.93    1.34    1.00
  YS02001784YS02001785 CONDUIT    970.12     0  03:01      1.93    2.26    1.00
  YS02001788YS02001790 CONDUIT    970.19     0  03:01      2.02    0.72    1.00
  YS02001790YS02001791 CONDUIT    970.42     0  03:00      2.38    1.06    1.00
  YS02001791YS02001793 CONDUIT    970.50     0  03:00      4.66    0.42    1.00
  YS02001910YS02001907 CONDUIT    541.26     0  03:01      0.69    0.31    1.00
  YS02001786YS02001788 CONDUIT    970.09     0  03:00      1.99    1.87    1.00
  YS02001915YS02001910 CONDUIT    541.43     0  03:01      0.69    0.27    1.00
  YS02001918YS02001915 CONDUIT    270.07     0  02:52      0.44    0.15    1.00
  YS02001923YS02001920 CONDUIT    267.13     0  02:52      0.71    0.12    1.00
  YS02001926YS02001923 CONDUIT    258.68     0  02:53      0.82    0.37    0.94
  YS02001929YS02001926 CONDUIT    192.74     0  02:53      0.87    0.09    0.86
  YS02001920YS02001918 CONDUIT    269.83     0  02:52      0.70    0.26    1.00
  YS02001629YS02163301 CONDUIT    210.41     0  02:48      0.27    0.26    1.00
  YS02001619YS02001622 CONDUIT    338.22     0  03:01      0.60    0.50    1.00
  YS02001622YS02001625 CONDUIT    338.01     0  03:01      0.43    0.18    1.00
  YS02001625YS02001629 CONDUIT    210.34     0  02:48      0.27    0.10    1.00
  YS02163301YS02001633 CONDUIT    210.70     0  02:47      0.27    0.20    1.00
  YS02163601YS02164001 CONDUIT    443.83     0  02:48      0.57    0.39    1.00
  YS02164001YS02001641 CONDUIT    444.02     0  02:48      0.57    0.61    1.00
  YS02001641YS02001644 CONDUIT    443.52     0  02:48      0.56    1.43    1.00
  YS02001647YS02001649 CONDUIT    676.73     0  02:48      0.86    0.36    1.00
  YS02006553YS02006556 CONDUIT    671.90     0  03:32      0.86    0.57    1.00
  YS02006556YS02006558 CONDUIT    672.17     0  03:32      0.86    0.53    1.00
  YSB6556YSB1171       CONDUIT     41.33     0  03:02      0.13    0.04    0.80
  YS02001907YS02006553 CONDUIT    672.05     0  03:32      0.75    0.79    1.00
  YS02006558YS02006561 CONDUIT    968.99     0  03:00      3.43    2.14    1.00
  YS02001633YS02163601 CONDUIT    443.71     0  02:48      0.56    0.47    1.00
  YS02001644YS02001647 CONDUIT    676.85     0  02:48      0.86    0.40    1.00
  YS02001745YS02001748 CONDUIT    427.80     0  02:44      1.48    0.16    0.96
  YS02001748YS02001751 CONDUIT    399.61     0  03:01      1.03    0.20    1.00
  YS02001751YS02001754 CONDUIT    399.57     0  03:01      0.84    0.19    1.00
  YS02001754YS02001757 CONDUIT    399.59     0  03:01      0.51    0.16    1.00
  YS02001882YS02001884 CONDUIT     29.67     0  02:46      0.08    0.03    1.00
  YS02001884YS02001887 CONDUIT     38.29     0  02:44      0.05    0.05    1.00
  YS02001890YS02001895 CONDUIT    516.81     0  03:06      0.66    0.24    1.00
  YS02001895YS02001898 CONDUIT    516.98     0  03:06      0.66    0.90    1.00
  YS02001898YS02001901 CONDUIT    516.83     0  03:06      0.66    0.33    1.00
  YS02001901YS02001904 CONDUIT    516.81     0  03:05      0.66    0.80    1.00
  YS02001904YS02001907 CONDUIT    516.76     0  03:06      0.66    0.18    1.00
  YS02001887YS02001890 CONDUIT    623.18     0  03:01      0.79    1.07    1.00
  YS02001652YS02001649 CONDUIT    481.58     0  03:01      0.61    0.24    1.00
  YS02001655YS02001652 CONDUIT    481.84     0  03:01      0.89    0.23    1.00
  YS02001658YS02001655 CONDUIT    481.23     0  03:01      1.18    0.20    1.00
  YS02001661YS02001658 CONDUIT    567.47     0  02:41      1.55    0.22    1.00
  YS02001664YS02001661 CONDUIT    717.63     0  02:55      1.47    0.23    0.75
  YSB1154YSB6556       CONDUIT     41.77     0  03:01      0.19    0.08    0.69
  YSB1174YSB1171       CONDUIT     34.49     0  03:01      0.10    0.05    0.81
  YSB1171HS02004479    CONDUIT     72.19     0  03:02      0.54    0.05    0.65
  HS02004881HS02006253 CONDUIT    131.62     0  03:01      2.13    0.03    0.18
  YS02001793JiankangQianchi CONDUIT    970.44     0  03:00     11.07    0.08    1.00
  YS02001757CaochengTiaoxuchi CONDUIT   1845.66     0  02:49      2.49    0.81    1.00
  WSF200WS02003060     CONDUIT    764.99     0  03:05      2.23    0.17    0.36
  1                    CONDUIT    873.76     0  03:08      3.21    0.30    0.38
  2                    CONDUIT     33.66     0  02:51      3.54    0.08    0.19
  3                    CONDUIT    272.11     0  03:00      8.51    0.43    0.46
  4                    CONDUIT      0.00     0  00:00      0.00    0.00    0.00
  CC-Pump-1            PUMP       199.96     0  06:50              1.00
  CC-Pump-2            PUMP       200.00     0  02:40              1.00
  JK-Pump-1            PUMP       300.00     0  05:10              1.00
  JK-Pump-2            PUMP       300.00     0  03:20              1.00
  XR-Pump-1            PUMP        95.00     0  00:00              1.00
  XR-Pump-2            PUMP        94.99     0  03:50              1.00
  XR-Pump-3            PUMP        94.96     0  07:20              1.00
  XR-Pump-4            PUMP        94.96     0  03:10              1.00
  
  
  ***************************
  Flow Classification Summary
  ***************************
  
  -------------------------------------------------------------------------------------
                      Adjusted    ---------- Fraction of Time in Flow Class ---------- 
                       /Actual         Up    Down  Sub   Sup   Up    Down  Norm  Inlet 
  Conduit               Length    Dry  Dry   Dry   Crit  Crit  Crit  Crit  Ltd   Ctrl  
  -------------------------------------------------------------------------------------
  WS02003066WSF200        1.00   0.07  0.00  0.00  0.00  0.93  0.00  0.00  0.77  0.00
  WS02006287WS02006284    1.00   0.06  0.02  0.00  0.53  0.40  0.00  0.00  0.67  0.00
  WS02006284WS02006280    1.00   0.07  0.00  0.00  0.00  0.00  0.00  0.93  0.00  0.00
  WS02006280WS02006229    1.00   0.07  0.00  0.00  0.00  0.00  0.00  0.93  0.00  0.00
  WS02006229WS02006228    1.00   0.00  0.00  0.00  1.00  0.00  0.00  0.00  0.00  0.00
  WS02006256WS02006235    1.00   0.01  0.00  0.00  0.99  0.00  0.00  0.00  0.00  0.00
  WS02006253WS02006251    1.00   0.01  0.05  0.00  0.93  0.00  0.01  0.00  0.00  0.00
  WS02006252WS02006251    1.00   0.16  0.00  0.00  0.00  0.00  0.84  0.00  0.00  0.00
  WS02006251WS02006249    1.00   0.00  0.00  0.00  1.00  0.00  0.00  0.00  0.61  0.00
  WS02006249WS02006248    1.00   0.00  0.00  0.00  0.57  0.00  0.43  0.00  0.00  0.00
  WS02006248WS02006247    1.00   0.01  0.00  0.00  0.96  0.00  0.00  0.04  0.53  0.00
  WS02006247WS02006245    1.00   0.01  0.00  0.00  0.95  0.00  0.00  0.04  0.00  0.00
  WS02006245WS02006243    1.00   0.01  0.00  0.00  0.89  0.00  0.00  0.10  0.06  0.00
  WS02006243WS02006242    1.00   0.01  0.00  0.00  0.98  0.00  0.00  0.00  0.43  0.00
  WS02006242WS02006240    1.00   0.01  0.00  0.00  0.98  0.00  0.00  0.00  0.00  0.00
  WS02006240WS02006239    1.00   0.01  0.00  0.00  0.92  0.00  0.00  0.07  0.03  0.00
  WS02006239WS02006238    1.00   0.01  0.00  0.00  0.99  0.00  0.00  0.00  0.11  0.00
  WS02006238WS02006235    1.00   0.01  0.00  0.00  0.99  0.00  0.00  0.00  0.00  0.00
  WS02006235WS02006234    1.00   0.01  0.00  0.00  0.95  0.00  0.03  0.00  0.00  0.00
  WS02006234WS02006232    1.00   0.01  0.00  0.00  0.99  0.00  0.00  0.00  0.03  0.00
  WS02006232WS02006231    1.00   0.01  0.00  0.00  0.98  0.00  0.00  0.00  0.00  0.00
  WS02006231WS02006230    1.00   0.01  0.00  0.00  0.31  0.00  0.67  0.00  0.00  0.00
  WS02006230WS02006229    1.00   0.00  0.00  0.00  0.99  0.00  0.00  0.01  0.01  0.00
  WS02006228WS02006109    1.00   0.00  0.00  0.00  1.00  0.00  0.00  0.00  0.01  0.00
  WS02006116WS02004401    1.00   0.04  0.00  0.00  0.96  0.00  0.00  0.00  0.00  0.00
  WS02006115WS02006116    1.00   0.04  0.00  0.00  0.95  0.00  0.00  0.01  0.00  0.00
  WS02006113WS02006111    1.00   0.02  0.00  0.00  0.02  0.95  0.00  0.00  0.18  0.00
  WS02006112WS02006115    1.00   0.03  0.01  0.00  0.95  0.00  0.01  0.00  0.00  0.00
  WS02006111WS02006112    1.00   0.03  0.00  0.00  0.96  0.00  0.00  0.01  0.89  0.00
  WS02006110WS02006113    1.00   0.00  0.02  0.00  0.98  0.00  0.00  0.00  0.00  0.00
  WS02006109WS02006110    1.00   0.00  0.00  0.00  0.99  0.00  0.00  0.00  0.00  0.00
  WS02004411WS02004412    1.00   0.06  0.00  0.00  0.94  0.00  0.00  0.00  0.00  0.00
  WS02004401WS02004402    1.00   0.04  0.00  0.00  0.96  0.00  0.00  0.00  0.00  0.00
  WS02004413WS02003067    1.00   0.06  0.01  0.00  0.00  0.00  0.93  0.00  0.00  0.00
  WS02004412WS02004413    1.00   0.06  0.00  0.00  0.94  0.00  0.00  0.00  0.01  0.00
  WS02004410WS02004411    1.00   0.06  0.00  0.00  0.94  0.00  0.00  0.00  0.00  0.00
  WS02004409WS02004410    1.00   0.06  0.00  0.00  0.94  0.00  0.00  0.00  0.02  0.00
  WS02004407WS02004409    1.00   0.06  0.00  0.00  0.94  0.00  0.00  0.00  0.90  0.00
  WS02004406WS02004407    1.00   0.00  0.06  0.00  0.94  0.00  0.00  0.00  0.00  0.00
  WS02004405WS02004406    1.00   0.00  0.00  0.00  1.00  0.00  0.00  0.00  0.04  0.00
  WS02004404WS02004405    1.00   0.00  0.00  0.00  1.00  0.00  0.00  0.00  0.00  0.00
  WS02004403WS02004404    1.00   0.00  0.05  0.00  0.95  0.00  0.00  0.00  0.00  0.00
  WS02004402WS02004403    1.00   0.05  0.00  0.00  0.95  0.00  0.00  0.00  0.00  0.00
  WS02004139WS02001211    1.00   0.00  0.00  0.00  1.00  0.00  0.00  0.00  0.00  0.00
  WS02004138WS02004139    1.00   0.00  0.00  0.00  1.00  0.00  0.00  0.00  1.00  0.00
  WS02003067WS02003066    1.00   0.07  0.00  0.00  0.93  0.00  0.00  0.00  0.00  0.00
  WS02001213WS02003059    1.00   0.00  0.00  0.00  1.00  0.00  0.00  0.00  0.00  0.00
  WS02001212WS02001213    1.00   0.00  0.00  0.00  0.51  0.00  0.49  0.00  0.00  0.00
  WS02001211WS02001212    1.00   0.00  0.00  0.00  1.00  0.00  0.00  0.00  0.00  0.00
  WS02003072WS02003073    1.00   0.00  0.00  0.00  0.00  0.00  0.00  1.00  0.00  0.00
  WS02003069WS02003072    1.00   0.00  0.00  0.00  1.00  0.00  0.00  0.00  0.77  0.00
  WS02003060WS02003069    1.00   0.00  0.00  0.00  0.98  0.02  0.00  0.00  0.54  0.00
  WS02003059WS02003060    1.00   0.00  0.00  0.00  1.00  0.00  0.00  0.00  0.02  0.00
  HS02004901HS02004770    1.00   0.06  0.00  0.00  0.94  0.00  0.00  0.00  0.01  0.00
  HS02004876HS02004881    1.00   0.01  0.00  0.00  0.84  0.15  0.00  0.00  0.00  0.00
  HS02004870HS02004876    1.00   0.00  0.00  0.00  1.00  0.00  0.00  0.00  0.95  0.00
  HS02004842HS02004848    1.00   0.00  0.07  0.00  0.93  0.00  0.00  0.00  0.58  0.00
  HS02004837HS02004842    1.00   0.00  0.00  0.00  1.00  0.00  0.00  0.00  0.11  0.00
  HS02004830HS02004837    1.00   0.00  0.00  0.00  1.00  0.00  0.00  0.00  0.99  0.00
  HS02004824HS02004830    1.00   0.00  0.00  0.00  1.00  0.00  0.00  0.00  0.01  0.00
  HS02004817HS02004824    1.00   0.00  0.00  0.00  1.00  0.00  0.00  0.00  0.98  0.00
  HS02004770HS02004777    1.00   0.00  0.06  0.00  0.94  0.00  0.00  0.00  0.04  0.00
  HS02004799HS02004480    1.00   0.00  0.01  0.00  0.92  0.00  0.07  0.00  0.00  0.00
  HS02004792HS02004799    1.00   0.00  0.00  0.00  1.00  0.00  0.00  0.00  0.98  0.00
  HS02004788HS02004792    1.00   0.00  0.00  0.00  1.00  0.00  0.00  0.00  0.98  0.00
  HS02004785HS02004788    1.00   0.00  0.00  0.00  1.00  0.00  0.00  0.00  0.00  0.00
  HS02004777HS02004785    1.00   0.00  0.00  0.00  1.00  0.00  0.00  0.00  0.15  0.00
  HS02004480HS02004478    1.00   0.07  0.00  0.00  0.59  0.00  0.00  0.35  0.00  0.00
  HS02004479HS02004480    1.00   0.01  0.00  0.00  0.99  0.00  0.00  0.00  0.13  0.00
  HS02004862HS02004870    1.00   0.00  0.00  0.00  1.00  0.00  0.00  0.00  0.06  0.00
  HS02004848HS02004852    1.00   0.07  0.00  0.00  0.93  0.00  0.00  0.00  0.64  0.00
  HS02004856HS02004862    1.00   0.00  0.09  0.00  0.91  0.00  0.00  0.00  0.79  0.00
  HS02004852HS02004856    1.00   0.06  0.00  0.00  0.93  0.00  0.00  0.00  0.81  0.00
  HS02004802HS02004478    1.00   0.07  0.00  0.00  0.93  0.00  0.00  0.00  0.03  0.00
  HS02004478WS02006287    1.00   0.08  0.00  0.00  0.67  0.25  0.00  0.00  0.66  0.00
  HS02004817HS02004807    1.00   0.00  0.07  0.00  0.93  0.00  0.00  0.00  0.01  0.00
  HS02004807HS02004802    1.00   0.07  0.00  0.00  0.93  0.00  0.00  0.01  0.00  0.00
  YS02001759YS02001757    1.00   0.00  0.00  0.00  1.00  0.00  0.00  0.00  0.17  0.00
  YS02001762YS02001759    1.00   0.00  0.00  0.00  1.00  0.00  0.00  0.00  0.04  0.00
  YS02001765YS02001762    1.00   0.00  0.00  0.00  1.00  0.00  0.00  0.00  0.17  0.00
  YS02001770YS02001767    1.00   0.00  0.00  0.00  1.00  0.00  0.00  0.00  0.00  0.00
  YS02001774YS02001770    1.00   0.00  0.07  0.00  0.93  0.00  0.00  0.00  0.04  0.00
  YS02001779YS02001774    1.00   0.00  0.00  0.00  1.00  0.00  0.00  0.00  0.22  0.00
  YS02001649YS02001757    1.00   0.00  0.00  0.00  1.00  0.00  0.00  0.00  0.17  0.00
  YS02001767YS02001765    1.00   0.00  0.00  0.00  1.00  0.00  0.00  0.00  0.01  0.00
  YS02006561YS02001783    1.00   0.09  0.00  0.00  0.77  0.14  0.00  0.00  0.55  0.00
  YS02001783YS02001784    1.00   0.00  0.09  0.00  0.91  0.00  0.00  0.00  0.01  0.00
  YS02001784YS02001785    1.00   0.00  0.00  0.00  1.00  0.00  0.00  0.00  0.21  0.00
  YS02001788YS02001790    1.00   0.00  0.00  0.00  0.94  0.06  0.00  0.00  0.25  0.00
  YS02001790YS02001791    1.00   0.00  0.00  0.00  0.85  0.15  0.00  0.00  0.06  0.00
  YS02001791YS02001793    1.00   0.00  0.00  0.00  0.85  0.15  0.00  0.00  0.00  0.00
  YS02001910YS02001907    1.00   0.00  0.00  0.00  0.99  0.00  0.00  0.01  0.13  0.00
  YS02001786YS02001788    1.00   0.00  0.00  0.00  0.93  0.07  0.00  0.00  0.00  0.00
  YS02001915YS02001910    1.00   0.00  0.00  0.00  0.99  0.01  0.00  0.00  0.19  0.00
  YS02001918YS02001915    1.00   0.00  0.00  0.00  0.99  0.00  0.00  0.00  0.56  0.00
  YS02001923YS02001920    1.00   0.00  0.00  0.00  1.00  0.00  0.00  0.00  0.82  0.00
  YS02001926YS02001923    1.00   0.00  0.05  0.00  0.23  0.00  0.72  0.00  0.00  0.00
  YS02001929YS02001926    1.00   0.00  0.06  0.00  0.94  0.00  0.00  0.00  0.75  0.00
  YS02001920YS02001918    1.00   0.00  0.00  0.00  1.00  0.00  0.00  0.00  0.00  0.00
  YS02001629YS02163301    1.00   0.08  0.00  0.00  0.92  0.00  0.00  0.00  0.00  0.00
  YS02001619YS02001622    1.00   0.06  0.00  0.00  0.94  0.00  0.00  0.00  0.00  0.00
  YS02001622YS02001625    1.00   0.07  0.00  0.00  0.93  0.00  0.00  0.00  0.08  0.00
  YS02001625YS02001629    1.00   0.07  0.03  0.00  0.89  0.00  0.02  0.00  0.00  0.00
  YS02163301YS02001633    1.00   0.00  0.08  0.00  0.92  0.00  0.00  0.00  0.00  0.00
  YS02163601YS02164001    1.00   0.00  0.05  0.00  0.95  0.00  0.00  0.00  0.00  0.00
  YS02164001YS02001641    1.00   0.00  0.05  0.00  0.95  0.00  0.00  0.00  0.06  0.00
  YS02001641YS02001644    1.00   0.00  0.00  0.00  1.00  0.00  0.00  0.00  0.00  0.00
  YS02001647YS02001649    1.00   0.00  0.09  0.00  0.91  0.00  0.00  0.00  0.01  0.00
  YS02006553YS02006556    1.00   0.00  0.00  0.00  1.00  0.00  0.00  0.00  0.03  0.00
  YS02006556YS02006558    1.00   0.00  0.00  0.00  1.00  0.00  0.00  0.00  0.00  0.00
  YSB6556YSB1171          1.00   0.01  0.05  0.00  0.94  0.00  0.00  0.00  0.00  0.00
  YS02001907YS02006553    1.00   0.00  0.01  0.00  0.99  0.00  0.00  0.00  0.00  0.00
  YS02006558YS02006561    1.00   0.09  0.00  0.00  0.27  0.64  0.00  0.00  0.49  0.00
  YS02001633YS02163601    1.00   0.00  0.00  0.00  1.00  0.00  0.00  0.00  0.16  0.00
  YS02001644YS02001647    1.00   0.00  0.09  0.00  0.91  0.00  0.00  0.00  0.00  0.00
  YS02001745YS02001748    1.00   0.00  0.00  0.00  0.86  0.01  0.00  0.14  0.03  0.00
  YS02001748YS02001751    1.00   0.00  0.00  0.00  0.96  0.04  0.00  0.00  0.15  0.00
  YS02001751YS02001754    1.00   0.00  0.00  0.00  0.90  0.00  0.00  0.10  0.02  0.00
  YS02001754YS02001757    1.00   0.00  0.00  0.00  1.00  0.00  0.00  0.00  0.21  0.00
  YS02001882YS02001884    1.00   0.07  0.00  0.00  0.92  0.00  0.00  0.00  0.00  0.00
  YS02001884YS02001887    1.00   0.03  0.04  0.00  0.94  0.00  0.00  0.00  0.00  0.00
  YS02001890YS02001895    1.00   0.00  0.08  0.00  0.92  0.00  0.00  0.00  0.00  0.00
  YS02001895YS02001898    1.00   0.08  0.00  0.00  0.91  0.00  0.01  0.00  0.00  0.00
  YS02001898YS02001901    1.00   0.08  0.00  0.00  0.92  0.00  0.00  0.00  0.03  0.00
  YS02001901YS02001904    1.00   0.08  0.00  0.00  0.92  0.00  0.00  0.00  0.00  0.00
  YS02001904YS02001907    1.00   0.00  0.08  0.00  0.92  0.00  0.00  0.00  0.00  0.00
  YS02001887YS02001890    1.00   0.00  0.00  0.00  0.99  0.00  0.01  0.00  0.00  0.00
  YS02001652YS02001649    1.00   0.00  0.00  0.00  1.00  0.00  0.00  0.00  0.19  0.00
  YS02001655YS02001652    1.00   0.00  0.00  0.00  0.90  0.00  0.00  0.10  0.03  0.00
  YS02001658YS02001655    1.00   0.00  0.07  0.00  0.89  0.04  0.00  0.00  0.13  0.00
  YS02001661YS02001658    1.00   0.07  0.00  0.00  0.86  0.07  0.00  0.00  0.08  0.00
  YS02001664YS02001661    1.00   0.06  0.00  0.00  0.89  0.05  0.00  0.00  0.22  0.00
  YSB1154YSB6556          1.00   0.06  0.00  0.00  0.94  0.00  0.00  0.00  0.02  0.00
  YSB1174YSB1171          1.00   0.01  0.04  0.00  0.95  0.00  0.00  0.00  0.00  0.00
  YSB1171HS02004479       1.00   0.01  0.00  0.00  0.98  0.00  0.00  0.00  0.11  0.00
  HS02004881HS02006253    1.00   0.01  0.00  0.00  0.31  0.08  0.00  0.60  0.20  0.00
  YS02001793JiankangQianchi    1.00   0.00  0.00  0.00  0.94  0.06  0.00  0.00  0.23  0.00
  YS02001757CaochengTiaoxuchi    1.00   0.00  0.11  0.00  0.89  0.00  0.00  0.00  0.00  0.00
  WSF200WS02003060        1.00   0.00  0.07  0.00  0.21  0.72  0.00  0.00  0.44  0.00
  1                       1.00   0.00  0.00  0.00  0.00  1.00  0.00  0.00  0.26  0.00
  2                       1.00   0.92  0.00  0.00  0.00  0.07  0.00  0.00  0.01  0.00
  3                       1.00   0.45  0.00  0.00  0.00  0.55  0.00  0.00  0.27  0.00
  4                       1.00   1.00  0.00  0.00  0.00  0.00  0.00  0.00  0.00  0.00
  
  
  *************************
  Conduit Surcharge Summary
  *************************
  
  ----------------------------------------------------------------------------
                                                           Hours        Hours 
                         --------- Hours Full --------   Above Full   Capacity
  Conduit                Both Ends  Upstream  Dnstream   Normal Flow   Limited
  ----------------------------------------------------------------------------
  WS02006229WS02006228        0.71      0.73      0.71      1.83         0.71
  WS02006256WS02006235        3.92      3.92      6.77      2.52         0.01
  WS02006249WS02006248        0.01      0.01      0.01      1.09         0.01
  WS02006247WS02006245        0.01      0.01      0.01      1.61         0.01
  WS02006243WS02006242        0.01      0.01      0.32      0.01         0.01
  WS02006242WS02006240        0.30      0.30      0.35      0.01         0.01
  WS02006240WS02006239        0.31      0.31      0.34      0.01         0.01
  WS02006239WS02006238        0.37      0.37      0.40      0.01         0.01
  WS02006238WS02006235        0.40      0.40      0.43      0.01         0.01
  WS02006235WS02006234        0.36      0.36      0.38      3.80         0.01
  WS02006234WS02006232        0.39      0.39      0.51      0.01         0.01
  WS02006232WS02006231        0.37      0.37      0.51      0.01         0.01
  WS02006231WS02006230        0.36      0.36      0.38      4.14         0.01
  WS02006230WS02006229        0.96      1.32      0.96      5.16         0.94
  WS02006228WS02006109        0.72      0.81      0.72      2.57         0.71
  WS02006116WS02004401        0.21      0.21      0.22      0.15         0.16
  WS02006115WS02006116        0.07      0.07      0.07      0.01         0.01
  WS02006112WS02006115        0.03      0.03      0.57      0.01         0.01
  WS02006111WS02006112        0.01      0.01      2.12      0.01         0.01
  WS02006110WS02006113        0.01      0.01      0.74      0.01         0.01
  WS02006109WS02006110        0.50      0.50      0.81      0.51         0.01
  WS02004411WS02004412        0.01      0.01      0.01      0.19         0.01
  WS02004401WS02004402        0.22      0.22      0.25      0.01         0.01
  WS02004410WS02004411        0.01      0.01      0.01      0.13         0.01
  WS02004406WS02004407        0.01      0.01      0.35      0.01         0.01
  WS02004405WS02004406        0.35      0.38      0.35      0.54         0.35
  WS02004404WS02004405        0.38      0.40      0.38      4.53         0.38
  WS02004403WS02004404        0.26      0.26      0.40      0.01         0.01
  WS02004402WS02004403        0.25      0.25      0.26      0.21         0.21
  WS02003072WS02003073        0.01      0.01      0.01      0.92         0.01
  HS02004876HS02004881        0.01      0.01      0.01      0.17         0.01
  HS02004785HS02004788        0.01      0.01      0.01      0.10         0.01
  HS02004480HS02004478        0.01      0.01      0.01      0.52         0.01
  YS02001759YS02001757        5.54      5.54      5.62      0.01         0.01
  YS02001762YS02001759        5.52      5.52      5.54      0.01         0.01
  YS02001765YS02001762        5.49      5.49      5.52      0.01         0.01
  YS02001770YS02001767        5.47      5.47      5.47      0.26         0.63
  YS02001774YS02001770        5.46      5.46      5.51      0.01         0.01
  YS02001779YS02001774        5.36      5.36      5.51      0.01         0.01
  YS02001649YS02001757        5.52      5.52      5.62      0.01         0.01
  YS02001767YS02001765        5.47      5.47      5.49      0.01         0.01
  YS02006561YS02001783        0.92      0.92      1.63      0.01         0.01
  YS02001783YS02001784        1.63      1.63      1.71      1.28         1.29
  YS02001784YS02001785        1.64      1.71      1.64      2.21         1.64
  YS02001788YS02001790        1.63      1.63      4.84      0.01         0.01
  YS02001790YS02001791        4.84      4.84      5.24      0.76         0.75
  YS02001791YS02001793        5.24      5.24      5.45      0.01         0.01
  YS02001910YS02001907        1.24      1.24      1.68      0.01         0.01
  YS02001786YS02001788        1.62      1.64      1.63      1.86         1.62
  YS02001915YS02001910        1.03      1.03      1.24      0.01         0.01
  YS02001918YS02001915        0.80      0.80      1.03      0.01         0.01
  YS02001923YS02001920        0.63      0.63      0.83      0.01         0.01
  YS02001920YS02001918        0.80      0.80      0.83      0.01         0.01
  YS02001629YS02163301        5.46      5.46      5.46      0.01         0.01
  YS02001619YS02001622        5.20      5.20      5.23      0.01         0.01
  YS02001622YS02001625        5.23      5.23      5.43      0.01         0.01
  YS02001625YS02001629        5.21      5.21      5.43      0.01         0.01
  YS02163301YS02001633        5.46      5.46      5.49      0.01         0.01
  YS02163601YS02164001        5.49      5.49      5.53      0.01         0.01
  YS02164001YS02001641        5.49      5.49      5.50      0.01         0.02
  YS02001641YS02001644        5.50      5.50      5.50      1.47         1.44
  YS02001647YS02001649        5.42      5.42      5.52      0.01         0.01
  YS02006553YS02006556        1.44      1.44      1.76      0.01         0.01
  YS02006556YS02006558        1.57      1.57      1.82      0.01         0.01
  YS02001907YS02006553        2.27      2.27      2.50      0.01         0.01
  YS02006558YS02006561        1.13      1.41      1.13      2.09         1.13
  YS02001633YS02163601        5.49      5.49      5.53      0.01         0.01
  YS02001644YS02001647        5.42      5.42      5.50      0.01         0.01
  YS02001745YS02001748        0.01      0.01      5.06      0.01         0.01
  YS02001748YS02001751        5.10      5.10      5.20      0.01         0.01
  YS02001751YS02001754        5.20      5.20      5.38      0.01         0.01
  YS02001754YS02001757        5.41      5.41      5.62      0.01         0.01
  YS02001882YS02001884        1.05      1.05      1.08      0.01         0.01
  YS02001884YS02001887        1.13      1.13      1.16      0.01         0.01
  YS02001890YS02001895        1.02      1.02      1.26      0.01         0.01
  YS02001895YS02001898        1.01      1.01      1.02      0.01         0.01
  YS02001898YS02001901        1.03      1.03      1.13      0.01         0.01
  YS02001901YS02001904        1.11      1.11      1.13      0.01         0.01
  YS02001904YS02001907        1.11      1.11      1.77      0.01         0.01
  YS02001887YS02001890        1.19      1.19      1.22      0.07         0.01
  YS02001652YS02001649        5.43      5.43      5.52      0.01         0.01
  YS02001655YS02001652        5.23      5.23      5.41      0.01         0.01
  YS02001658YS02001655        5.09      5.09      5.23      0.01         0.01
  YS02001661YS02001658        0.13      0.13      5.09      0.01         0.01
  YS02001664YS02001661        0.01      0.01      0.79      0.01         0.01
  YS02001793JiankangQianchi        5.44      5.44      6.16      0.01         0.01
  YS02001757CaochengTiaoxuchi        4.90      4.90      5.62      0.01         0.01
  
  
  ***************
  Pumping Summary
  ***************
  
  ---------------------------------------------------------------------------------------------------------
                                                  Min       Avg       Max     Total     Power    % Time Off
                        Percent   Number of      Flow      Flow      Flow    Volume     Usage    Pump Curve
  Pump                 Utilized   Start-Ups       LPS       LPS       LPS  10^6 ltr     Kw-hr    Low   High
  ---------------------------------------------------------------------------------------------------------
  CC-Pump-1               12.77           3      0.00    104.19    199.96     0.360      0.21    0.0    0.0
  CC-Pump-2               21.27           3      0.00    125.22    200.00     0.720      0.87    0.0    1.2
  JK-Pump-1               31.92           5      0.00    174.03    300.00     1.206      6.71    0.0    0.0
  JK-Pump-2               23.41           4      0.00    188.77    300.00     1.080      6.22    0.0    0.0
  XR-Pump-1               36.18           7      0.00     53.67     95.00     0.542      2.93    0.0    0.0
  XR-Pump-2               25.53           5      0.00     52.33     94.99     0.342      1.61    0.0    0.0
  XR-Pump-3                8.52           2      0.00     39.69     94.96     0.114      0.50    0.0    0.0
  XR-Pump-4               29.79           6      0.00     43.35     94.96     0.399      1.80    0.0    0.0
  

  Analysis begun on:  Tue Jan  4 16:24:29 2022
  Analysis ended on:  Tue Jan  4 16:24:31 2022
  Total elapsed time: 00:00:02