
  EPA STORM WATER MANAGEMENT MODEL - VERSION 5.1 (Build 5.3.0.dev0)
  --------------------------------------------------------------

  WARNING 04: minimum elevation drop used for Conduit WS02004404WS02004405
  WARNING 03: negative offset ignored for Link YS02001904YS02001907
  
  *********************************************************
  NOTE: The summary statistics displayed in this report are
  based on results found at every computational time step,  
  not just on results from each reporting time step.
  *********************************************************
  
  ****************
  Analysis Options
  ****************
  Flow Units ............... LPS
  Process Models:
    Rainfall/Runoff ........ YES
    RDII ................... NO
    Snowmelt ............... NO
    Groundwater ............ NO
    Flow Routing ........... YES
    Ponding Allowed ........ NO
    Water Quality .......... NO
  Infiltration Method ...... HORTON
  Flow Routing Method ...... DYNWAVE
  Surcharge Method ......... EXTRAN
  Starting Date ............ 08/28/2015 08:00:00
  Ending Date .............. 08/28/2015 15:50:00
  Antecedent Dry Days ...... 8.0
  Report Time Step ......... 00:01:00
  Wet Time Step ............ 00:01:00
  Dry Time Step ............ 00:01:00
  Routing Time Step ........ 5.00 sec
  Variable Time Step ....... YES
  Maximum Trials ........... 8
  Number of Threads ........ 4
  Head Tolerance ........... 0.001500 m
  
  
  **************************        Volume         Depth
  Runoff Quantity Continuity     hectare-m            mm
  **************************     ---------       -------
  Total Precipitation ......         7.641        16.729
  Evaporation Loss .........         0.000         0.000
  Infiltration Loss ........         1.880         4.117
  Surface Runoff ...........         4.668        10.221
  Final Storage ............         1.093         2.393
  Continuity Error (%) .....        -0.013
  
  
  **************************        Volume        Volume
  Flow Routing Continuity        hectare-m      10^6 ltr
  **************************     ---------     ---------
  Dry Weather Inflow .......         0.616         6.165
  Wet Weather Inflow .......         4.667        46.674
  Groundwater Inflow .......         0.000         0.000
  RDII Inflow ..............         0.000         0.000
  External Inflow ..........         0.102         1.024
  External Outflow .........         0.942         9.425
  Flooding Loss ............         3.870        38.696
  Evaporation Loss .........         0.000         0.000
  Exfiltration Loss ........         0.000         0.000
  Initial Stored Volume ....         0.076         0.761
  Final Stored Volume ......         0.652         6.519
  Continuity Error (%) .....        -0.031
  
  
  *************************
  Highest Continuity Errors
  *************************
  Node HS02004842 (12.71%)
  Node YS02001884 (9.77%)
  Node HS02004817 (2.32%)
  Node YSB1171 (2.18%)
  Node YS02163301 (1.64%)
  
  
  ***************************
  Time-Step Critical Elements
  ***************************
  Link WS02006252WS02006251 (50.70%)
  Link 3 (32.77%)
  Link WS02006280WS02006229 (4.96%)
  Link WS02006238WS02006235 (2.90%)
  Link YS02006556YS02006558 (1.24%)
  
  
  ********************************
  Highest Flow Instability Indexes
  ********************************
  Link WS02006113WS02006111 (41)
  Link YS02163601YS02164001 (22)
  Link YS02001619YS02001622 (21)
  Link YS02163301YS02001633 (21)
  Link YS02001629YS02163301 (20)
  
  
  *************************
  Routing Time Step Summary
  *************************
  Minimum Time Step           :     0.50 sec
  Average Time Step           :     1.15 sec
  Maximum Time Step           :     5.00 sec
  Percent in Steady State     :    -0.00
  Average Iterations per Step :     3.40
  Percent Not Converging      :    11.75
  
  
  ***************************
  Subcatchment Runoff Summary
  ***************************
  
  ------------------------------------------------------------------------------------------------------------------------------
                            Total      Total      Total      Total     Imperv       Perv      Total       Total     Peak  Runoff
                           Precip      Runon       Evap      Infil     Runoff     Runoff     Runoff      Runoff   Runoff   Coeff
  Subcatchment                 mm         mm         mm         mm         mm         mm         mm    10^6 ltr      LPS
  ------------------------------------------------------------------------------------------------------------------------------
  sub0                      16.73       0.00       0.00       0.97      14.29       0.20      14.50        0.01     3.66   0.867
  sub1                      16.73       0.00       0.00       1.58      13.63       0.26      13.89        0.09    24.51   0.830
  sub2                      16.73       0.00       0.00       5.80       9.63       0.39      10.02        0.09    22.91   0.599
  sub3                      16.73       0.00       0.00       5.88       9.59       0.31       9.90        0.22    50.49   0.592
  sub4                      16.73       0.00       0.00       1.65      13.47       0.19      13.66        0.28    60.01   0.817
  sub5                      16.73       0.00       0.00       0.99      14.24       0.18      14.42        0.16    43.61   0.862
  sub7                      16.73       0.00       0.00       1.26      13.97       0.24      14.21        0.05    13.82   0.849
  sub8                      16.73       0.00       0.00       1.27      13.96       0.23      14.19        0.09    25.44   0.848
  sub9                      16.73       0.00       0.00       1.27      13.96       0.23      14.19        0.07    19.02   0.848
  sub10                     16.73       0.00       0.00       1.13      14.10       0.21      14.30        0.16    42.73   0.855
  sub11                     16.73       0.00       0.00       1.12      14.11       0.21      14.33        0.17    47.25   0.857
  sub12                     16.73       0.00       0.00       1.83      13.37       0.35      13.71        0.12    35.87   0.820
  sub14                     16.73       0.00       0.00       1.27      13.95       0.23      14.19        0.14    37.43   0.848
  sub15                     16.73       0.00       0.00       4.53      10.73       0.49      11.22        0.19    51.47   0.671
  sub16                     16.73       0.00       0.00       4.88      10.29       0.64      10.93        0.11    32.57   0.653
  sub17                     16.73       0.00       0.00       4.74      10.44       0.61      11.05        0.09    26.81   0.661
  sub22                     16.73       0.00       0.00       6.60       8.75       0.59       9.34        0.59   160.16   0.558
  sub23                     16.73       0.00       0.00       5.59       9.67       0.60      10.27        0.49   134.74   0.614
  sub60                     16.73       0.00       0.00       1.94      11.65       0.06      11.71        3.55   386.89   0.700
  sub61                     16.73       0.00       0.00       2.75      11.65       0.09      11.73        3.62   476.87   0.701
  sub62                     16.73       0.00       0.00       1.26      12.72       0.07      12.79        3.93   491.27   0.765
  sub63                     16.73       0.00       0.00       4.75      10.14       0.10      10.23        3.10   437.54   0.612
  sub64                     16.73       0.00       0.00       2.45      11.19       0.06      11.26        3.42   367.58   0.673
  sub65                     16.73       0.00       0.00       2.11      11.40       0.06      11.46        3.52   372.98   0.685
  sub66                     16.73       0.00       0.00       4.79       9.55       0.06       9.61        2.95   336.52   0.575
  sub67                     16.73       0.00       0.00       1.24      13.25       0.09      13.35        4.12   605.48   0.798
  sub68                     16.73       0.00       0.00       2.25      12.20       0.10      12.30        3.78   521.64   0.735
  sub69                     16.73       0.00       0.00       2.37      12.50       0.14      12.64        2.95   482.20   0.755
  sub70                     16.73      12.90       0.00       8.98      17.16       1.09      18.25        4.18   460.88   0.616
  sub71                     16.73       0.00       0.00       1.27      12.46       0.07      12.53        2.96   345.19   0.749
  sub72                     16.73       0.00       0.00       1.14      10.39       0.03      10.43        2.12   185.81   0.623
  sub73                     16.73      17.77       0.00       9.78      19.72       1.38      21.10        4.96   482.28   0.612
  sub74                     16.73       0.00       0.00      12.48       3.71       0.07       3.78        1.51   261.10   0.226
  
  
  ******************
  Node Depth Summary
  ******************
  
  ---------------------------------------------------------------------------------
                                 Average  Maximum  Maximum  Time of Max    Reported
                                   Depth    Depth      HGL   Occurrence   Max Depth
  Node                 Type       Meters   Meters   Meters  days hr:min      Meters
  ---------------------------------------------------------------------------------
  WS02001211           JUNCTION     0.46     0.66     5.49     0  02:21        0.66
  WS02001212           JUNCTION     0.22     0.40     5.47     0  02:21        0.40
  WS02001213           JUNCTION     0.45     0.69     5.45     0  02:21        0.69
  WS02003069           JUNCTION     0.31     0.56     5.14     0  02:23        0.56
  WS02003072           JUNCTION     0.37     0.62     4.99     0  02:23        0.62
  WS02003073           JUNCTION     0.22     0.38     4.44     0  02:24        0.38
  WS02003060           JUNCTION     0.28     0.49     5.43     0  02:22        0.49
  WS02003066           JUNCTION     0.20     0.35     5.90     0  01:59        0.35
  WS02003059           JUNCTION     0.53     0.75     5.44     0  02:22        0.75
  WS02003067           JUNCTION     0.51     0.78     6.10     0  01:59        0.78
  WS02004401           JUNCTION     0.61     1.09     7.09     0  01:56        1.08
  WS02004402           JUNCTION     0.64     1.09     7.05     0  01:56        1.09
  WS02004403           JUNCTION     0.66     1.08     7.01     0  01:56        1.08
  WS02004404           JUNCTION     0.74     1.14     6.99     0  01:56        1.14
  WS02004406           JUNCTION     0.74     1.09     6.92     0  01:57        1.09
  WS02004409           JUNCTION     0.42     0.83     6.60     0  01:59        0.83
  WS02004410           JUNCTION     0.44     0.84     6.56     0  01:59        0.84
  WS02004411           JUNCTION     0.46     0.83     6.51     0  01:59        0.83
  WS02004412           JUNCTION     0.47     0.82     6.46     0  01:59        0.82
  WS02004413           JUNCTION     0.63     0.96     6.43     0  01:59        0.96
  WS02004405           JUNCTION     0.73     1.12     6.97     0  01:56        1.12
  WS02006109           JUNCTION     0.69     1.22     7.84     0  01:56        1.21
  WS02006110           JUNCTION     0.68     1.08     7.67     0  01:56        1.08
  WS02006111           JUNCTION     0.20     0.56     7.26     0  01:57        0.56
  WS02006112           JUNCTION     0.78     1.35     7.24     0  01:57        1.34
  WS02006113           JUNCTION     0.29     0.58     7.47     0  01:57        0.58
  WS02006115           JUNCTION     0.51     1.03     7.17     0  01:56        1.03
  WS02006116           JUNCTION     0.59     1.09     7.13     0  01:56        1.09
  WS02006230           JUNCTION     0.64     1.32     8.06     0  01:54        1.31
  WS02006231           JUNCTION     0.41     0.95     8.07     0  01:56        0.95
  WS02006232           JUNCTION     0.53     1.04     8.08     0  01:56        1.02
  WS02006234           JUNCTION     0.42     0.92     8.08     0  01:57        0.91
  WS02006235           JUNCTION     0.45     0.92     8.08     0  01:56        0.90
  WS02006238           JUNCTION     0.47     0.95     8.09     0  01:56        0.94
  WS02006240           JUNCTION     0.35     0.80     8.09     0  01:56        0.80
  WS02006242           JUNCTION     0.40     0.84     8.10     0  01:56        0.83
  WS02006243           JUNCTION     0.28     0.69     8.11     0  01:56        0.69
  WS02006245           JUNCTION     0.27     0.63     8.12     0  01:57        0.63
  WS02006247           JUNCTION     0.28     0.62     8.12     0  01:57        0.62
  WS02006248           JUNCTION     0.24     0.54     8.13     0  01:56        0.54
  WS02006249           JUNCTION     0.27     0.54     8.14     0  01:57        0.54
  WS02006239           JUNCTION     0.42     0.88     8.09     0  01:55        0.87
  WS02006251           JUNCTION     0.25     0.48     8.15     0  01:56        0.48
  WS02006252           JUNCTION     0.17     0.35     8.59     0  04:00        0.35
  WS02006253           JUNCTION     0.28     0.52     8.16     0  01:56        0.52
  WS02006256           JUNCTION     0.88     1.19     8.13     0  05:30        1.19
  WS02004138           JUNCTION     0.06     0.14     7.39     0  01:00        0.14
  WS02004407           JUNCTION     0.19     0.36     6.67     0  01:57        0.36
  WS02006228           JUNCTION     0.69     1.33     7.98     0  01:56        1.32
  WS02006229           JUNCTION     0.66     1.36     8.05     0  01:56        1.35
  WS02006280           JUNCTION     0.08     0.25     8.52     0  01:55        0.25
  WS02006284           JUNCTION     0.39     0.64     9.04     0  01:55        0.64
  WS02006287           JUNCTION     0.12     0.38     9.33     0  01:54        0.38
  WSF200               JUNCTION     0.18     0.36     5.59     0  01:59        0.36
  HS02004901           JUNCTION     0.15     0.36    10.18     0  01:52        0.36
  HS02004881           JUNCTION     0.01     0.05     9.08     0  01:54        0.05
  HS02004876           JUNCTION     0.05     0.16     9.19     0  01:55        0.16
  HS02004870           JUNCTION     0.02     0.09     9.38     0  01:55        0.09
  HS02004862           JUNCTION     0.03     0.11     9.49     0  01:55        0.11
  HS02004856           JUNCTION     0.08     0.15     9.58     0  01:55        0.15
  HS02004852           JUNCTION     0.02     0.07     9.59     0  01:55        0.07
  HS02004848           JUNCTION     0.02     0.07     9.67     0  01:55        0.07
  HS02004842           JUNCTION     0.33     0.40     9.67     0  01:55        0.40
  HS02004837           JUNCTION     0.04     0.09     9.67     0  01:55        0.09
  HS02004830           JUNCTION     0.05     0.10     9.57     0  01:56        0.10
  HS02004824           JUNCTION     0.03     0.12     9.53     0  01:55        0.12
  HS02004817           JUNCTION     0.45     0.69     9.53     0  01:55        0.69
  HS02004807           JUNCTION     0.15     0.36     9.53     0  01:55        0.36
  HS02004802           JUNCTION     0.18     0.39     9.52     0  01:55        0.39
  HS02004799           JUNCTION     0.15     0.45     9.66     0  01:53        0.45
  HS02004792           JUNCTION     0.05     0.20     9.73     0  01:52        0.20
  HS02004788           JUNCTION     0.04     0.15    10.05     0  01:53        0.15
  HS02004785           JUNCTION     0.06     0.23    10.14     0  01:52        0.23
  HS02004777           JUNCTION     0.17     0.37    10.17     0  01:52        0.37
  HS02004770           JUNCTION     0.14     0.35    10.18     0  01:52        0.35
  HS02004480           JUNCTION     0.11     0.37     9.61     0  01:53        0.37
  HS02004479           JUNCTION     0.14     0.41     9.61     0  01:53        0.41
  HS02004478           JUNCTION     0.08     0.27     9.50     0  01:54        0.27
  YS02001745           JUNCTION     0.75     0.96     8.47     0  02:46        0.96
  YS02001748           JUNCTION     1.15     1.39     8.47     0  02:46        1.39
  YS02001751           JUNCTION     1.32     1.72     8.60     0  01:48        1.58
  YS02001754           JUNCTION     1.57     1.85     8.45     0  02:47        1.85
  YS02001762           JUNCTION     1.77     2.04     8.44     0  02:47        2.04
  YS02001765           JUNCTION     1.72     1.99     8.44     0  02:49        1.99
  YS02001767           JUNCTION     1.68     1.95     8.43     0  02:49        1.94
  YS02001770           JUNCTION     1.68     1.93     8.42     0  02:49        1.93
  YS02001774           JUNCTION     1.74     1.99     8.41     0  01:47        1.98
  YS02001779           JUNCTION     1.49     1.68     8.37     0  01:47        1.68
  YS02001882           JUNCTION     0.68     1.69     8.41     0  01:56        1.63
  YS02001884           JUNCTION     0.77     1.77     8.39     0  01:56        1.72
  YS02001759           JUNCTION     1.80     2.08     8.45     0  02:47        2.08
  YS02001887           JUNCTION     0.85     1.83     8.37     0  01:56        1.80
  YS02001890           JUNCTION     0.88     1.81     8.32     0  01:56        1.81
  YS02001898           JUNCTION     0.65     1.58     8.32     0  01:56        1.56
  YS02001901           JUNCTION     0.76     1.69     8.30     0  01:57        1.67
  YS02001904           JUNCTION     0.74     1.65     8.28     0  01:57        1.63
  YS02001907           JUNCTION     1.06     1.96     8.25     0  01:56        1.96
  YS02001910           JUNCTION     0.86     1.97     8.48     0  01:58        1.80
  YS02001915           JUNCTION     0.66     1.91     8.63     0  01:58        1.62
  YS02001918           JUNCTION     0.41     1.81     8.88     0  01:58        1.34
  YS02001619           JUNCTION     1.28     1.61     8.54     0  01:47        1.61
  YS02001629           JUNCTION     1.63     1.85     8.40     0  01:47        1.84
  YS02001641           JUNCTION     1.72     1.94     8.37     0  01:56        1.93
  YS02001644           JUNCTION     1.72     1.92     8.35     0  01:52        1.92
  YS02001652           JUNCTION     1.58     2.11     8.71     0  02:09        1.88
  YS02001655           JUNCTION     1.35     2.19     9.04     0  02:08        1.67
  YS02001920           JUNCTION     0.51     2.11     9.11     0  01:58        1.43
  YS02001923           JUNCTION     0.33     2.03     9.29     0  01:58        1.21
  YS02001926           JUNCTION     0.36     1.60     9.04     0  01:58        1.02
  YS02001929           JUNCTION     0.22     1.78     9.47     0  01:58        0.79
  YS02001658           JUNCTION     1.09     2.24     9.38     0  02:08        1.44
  YS02001661           JUNCTION     0.86     2.37     9.78     0  02:08        1.23
  YS02001664           JUNCTION     0.39     0.57     8.49     0  04:36        0.56
  YS02001622           JUNCTION     1.30     1.62     8.52     0  01:47        1.60
  YS02001633           JUNCTION     1.72     1.95     8.40     0  02:14        1.94
  YS02001649           JUNCTION     1.77     2.05     8.44     0  02:04        2.05
  YS02001757           JUNCTION     1.89     2.19     8.45     0  02:47        2.19
  YS02001895           JUNCTION     0.64     1.58     8.33     0  01:56        1.57
  YS02001625           JUNCTION     1.58     1.78     8.38     0  01:46        1.78
  YS02163301           JUNCTION     1.66     1.89     8.40     0  01:49        1.88
  YS02163601           JUNCTION     1.77     1.99     8.39     0  01:56        1.98
  YS02164001           JUNCTION     1.70     1.92     8.38     0  01:53        1.91
  YS02001647           JUNCTION     1.56     1.81     8.42     0  02:08        1.78
  YSB1154              JUNCTION     0.28     0.56     9.62     0  01:53        0.56
  YSB6556              JUNCTION     0.18     0.44     9.61     0  01:53        0.44
  YSB1174              JUNCTION     0.23     0.50     9.61     0  01:53        0.50
  YSB1171              JUNCTION     0.43     0.71     9.61     0  01:53        0.71
  YS02006553           JUNCTION     1.06     2.18     8.46     0  01:56        1.96
  YS02006561           JUNCTION     0.41     1.95     8.61     0  01:56        1.08
  YS02006556           JUNCTION     1.03     2.39     8.70     0  01:56        1.93
  YS02006558           JUNCTION     1.07     2.50     8.77     0  01:56        1.97
  YS02001783           JUNCTION     0.69     2.39     8.53     0  01:56        1.47
  YS02001784           JUNCTION     0.71     2.25     8.32     0  01:56        1.42
  YS02001786           JUNCTION     0.66     2.23     8.26     0  01:56        1.26
  YS02001788           JUNCTION     0.61     2.28     8.26     0  01:56        1.13
  YS02001790           JUNCTION     0.83     1.96     7.60     0  01:56        1.29
  YS02001791           JUNCTION     0.90     2.72     8.19     0  01:56        1.27
  YS02001793           JUNCTION     1.40     2.06     6.89     0  01:56        1.80
  WS02004139           JUNCTION     0.39     0.59     5.50     0  02:20        0.59
  WSC                  OUTFALL      0.21     0.38     1.05     0  02:24        0.38
  3                    OUTFALL      0.05     0.19     6.19     0  05:30        0.19
  4                    OUTFALL      0.00     0.04     7.04     0  01:57        0.04
  5                    OUTFALL      0.00     0.00     5.00     0  00:00        0.00
  JK-storage           STORAGE      4.95     5.80     6.60     0  01:56        5.80
  CC-storage           STORAGE      1.13     1.45     8.45     0  02:44        1.45
  XR-storage           STORAGE      7.62     7.72     5.72     0  00:39        7.72
  
  
  *******************
  Node Inflow Summary
  *******************
  
  -------------------------------------------------------------------------------------------------
                                  Maximum  Maximum                  Lateral       Total        Flow
                                  Lateral    Total  Time of Max      Inflow      Inflow     Balance
                                   Inflow   Inflow   Occurrence      Volume      Volume       Error
  Node                 Type           LPS      LPS  days hr:min    10^6 ltr    10^6 ltr     Percent
  -------------------------------------------------------------------------------------------------
  WS02001211           JUNCTION      7.35   188.21     0  02:20       0.207        1.55       0.822
  WS02001212           JUNCTION      0.00   183.42     0  02:21           0        1.54       0.384
  WS02001213           JUNCTION      0.00   182.53     0  02:21           0        1.54       0.783
  WS02003069           JUNCTION      0.32   873.50     0  02:22     0.00902        8.16       0.177
  WS02003072           JUNCTION      0.00   872.79     0  02:23           0        8.15       0.249
  WS02003073           JUNCTION      1.82   874.19     0  02:23      0.0514        8.18       0.263
  WS02003060           JUNCTION     16.53   873.84     0  02:22       0.466        8.19       0.166
  WS02003066           JUNCTION      0.00   779.20     0  01:59           0        6.22       0.052
  WS02003059           JUNCTION      0.00   184.73     0  02:22           0        1.54       1.667
  WS02003067           JUNCTION      0.00   779.07     0  01:59           0        6.23       0.114
  WS02004401           JUNCTION      0.00   780.75     0  01:57           0        6.39       0.231
  WS02004402           JUNCTION      0.00   780.79     0  01:57           0        6.38       0.227
  WS02004403           JUNCTION      0.00   780.81     0  01:57           0        6.37       0.214
  WS02004404           JUNCTION      0.16   780.98     0  01:57     0.00457        6.36       0.170
  WS02004406           JUNCTION      0.00   781.02     0  01:57           0        6.33       0.419
  WS02004409           JUNCTION      0.00   780.96     0  01:57           0         6.3       0.154
  WS02004410           JUNCTION      0.00   779.75     0  01:58           0        6.29       0.189
  WS02004411           JUNCTION      0.00   779.24     0  01:58           0        6.28       0.205
  WS02004412           JUNCTION      0.00   779.07     0  01:59           0        6.27       0.236
  WS02004413           JUNCTION      0.00   779.05     0  01:59           0        6.25       0.369
  WS02004405           JUNCTION      0.04   781.02     0  01:57     0.00107        6.35       0.255
  WS02006109           JUNCTION      1.23   756.66     0  01:56      0.0347        6.37       0.147
  WS02006110           JUNCTION      0.00   756.63     0  01:56           0        6.36       0.173
  WS02006111           JUNCTION      0.00   756.07     0  01:57           0        6.35       0.026
  WS02006112           JUNCTION     26.81   780.82     0  01:57      0.0948        6.44       0.332
  WS02006113           JUNCTION      0.00   756.64     0  01:56           0        6.35       0.057
  WS02006115           JUNCTION      0.00   780.85     0  01:57           0        6.42       0.176
  WS02006116           JUNCTION      0.00   780.79     0  01:57           0        6.41       0.181
  WS02006230           JUNCTION     10.28   312.74     0  04:13        0.29        3.67       0.240
  WS02006231           JUNCTION      0.00   302.66     0  04:12           0        3.37      -0.022
  WS02006232           JUNCTION      0.00   302.87     0  04:12           0        3.38       0.207
  WS02006234           JUNCTION      0.00   303.04     0  04:12           0        3.38      -0.077
  WS02006235           JUNCTION      0.00   303.21     0  04:12           0        3.47       0.188
  WS02006238           JUNCTION      0.00   235.80     0  03:11           0        2.08      -0.066
  WS02006240           JUNCTION      0.00   236.05     0  03:05           0        2.02       0.081
  WS02006242           JUNCTION      0.00   240.15     0  03:04           0           2       0.132
  WS02006243           JUNCTION      0.00   241.94     0  03:04           0        1.97      -0.464
  WS02006245           JUNCTION      0.00   243.48     0  03:04           0        1.98       0.387
  WS02006247           JUNCTION      0.00   244.63     0  03:03           0        1.98       0.037
  WS02006248           JUNCTION      0.00   245.47     0  03:03           0        1.97      -0.184
  WS02006249           JUNCTION      0.00   246.55     0  03:02           0        1.98       0.309
  WS02006239           JUNCTION      0.00   234.90     0  03:10           0        2.04      -0.258
  WS02006251           JUNCTION      0.08   247.95     0  03:02     0.00217           2      -0.038
  WS02006252           JUNCTION      0.00   200.00     0  07:11           0        1.44       0.010
  WS02006253           JUNCTION      3.66   142.87     0  01:54      0.0117       0.557      -0.025
  WS02006256           JUNCTION      0.00   599.89     0  05:30           0        2.69       0.091
  WS02004138           JUNCTION      0.00   190.00     0  02:50           0        1.34       0.004
  WS02004407           JUNCTION      0.00   781.07     0  01:57           0         6.3       0.063
  WS02006228           JUNCTION      0.00   755.44     0  01:56           0        6.34       0.122
  WS02006229           JUNCTION      0.00   757.09     0  01:54           0        6.36       0.174
  WS02006280           JUNCTION      0.00   656.05     0  01:55           0         2.7       0.003
  WS02006284           JUNCTION      0.10   655.96     0  01:55      0.0027         2.7       0.039
  WS02006287           JUNCTION      0.00   655.81     0  01:54           0         2.7       0.027
  WSF200               JUNCTION      0.00   779.24     0  01:59           0        6.22       0.039
  HS02004901           JUNCTION     32.57    32.57     0  01:50       0.114       0.115       1.560
  HS02004881           JUNCTION     13.82   139.59     0  01:54      0.0479       0.529       0.062
  HS02004876           JUNCTION     24.51   126.37     0  01:54      0.0923       0.482       0.114
  HS02004870           JUNCTION     25.44   102.13     0  01:54      0.0907        0.39       0.028
  HS02004862           JUNCTION     23.11    77.53     0  01:55       0.099       0.299       0.058
  HS02004856           JUNCTION     19.02    54.51     0  01:55      0.0682       0.202       0.720
  HS02004852           JUNCTION      0.00    36.10     0  01:55           0       0.134       0.042
  HS02004848           JUNCTION     50.49    50.49     0  01:57       0.223       0.223       0.021
  HS02004842           JUNCTION      0.00    15.55     0  02:06           0       0.102      14.560
  HS02004837           JUNCTION     49.08    62.50     0  01:55       0.337       0.426       0.191
  HS02004830           JUNCTION      0.15    62.61     0  01:55     0.00423       0.416       0.298
  HS02004824           JUNCTION     60.06   122.21     0  01:58       0.286       0.702       0.077
  HS02004817           JUNCTION      0.60   124.03     0  01:59      0.0169       0.718       2.377
  HS02004807           JUNCTION     47.25   168.28     0  01:57       0.166       0.868       0.499
  HS02004802           JUNCTION      0.00   169.25     0  01:58           0       0.865       0.463
  HS02004799           JUNCTION     37.43   414.53     0  01:52       0.135        1.57       0.166
  HS02004792           JUNCTION    160.44   377.30     0  01:52       0.598        1.44       0.028
  HS02004788           JUNCTION     53.14   218.54     0  01:52        0.24       0.839       0.047
  HS02004785           JUNCTION      0.15   165.59     0  01:52     0.00423       0.601       0.083
  HS02004777           JUNCTION      0.03   165.80     0  01:51    0.000846       0.601       0.872
  HS02004770           JUNCTION    134.74   166.64     0  01:51        0.49       0.602       0.516
  HS02004480           JUNCTION      0.00   492.22     0  01:53           0        1.85       0.064
  HS02004479           JUNCTION      0.00    78.00     0  01:53           0       0.292       0.252
  HS02004478           JUNCTION      0.00   655.76     0  01:54           0         2.7       0.013
  YS02001745           JUNCTION    386.89   386.89     0  02:16        3.55        3.55       0.327
  YS02001748           JUNCTION      0.04   396.35     0  02:16     0.00127        3.54       0.645
  YS02001751           JUNCTION      0.01   396.26     0  02:16     0.00031        3.52       0.689
  YS02001754           JUNCTION      0.26   396.25     0  02:16     0.00733         3.5       0.700
  YS02001762           JUNCTION      0.00   430.32     0  02:02           0        2.39       0.880
  YS02001765           JUNCTION      0.00   430.54     0  02:02           0        2.39       1.020
  YS02001767           JUNCTION      0.54   430.34     0  02:02      0.0151        2.42       1.491
  YS02001770           JUNCTION    491.42   724.28     0  02:47        3.94           5       0.627
  YS02001774           JUNCTION      0.00   724.59     0  02:47           0        3.64       0.690
  YS02001779           JUNCTION      0.01   724.73     0  02:47    0.000141        3.61       0.429
  YS02001882           JUNCTION      0.00    22.21     0  01:53           0      0.0179       9.027
  YS02001884           JUNCTION      0.00    46.43     0  01:52           0       0.054      10.826
  YS02001759           JUNCTION    476.91   854.58     0  02:03        3.62        4.92       0.467
  YS02001887           JUNCTION    605.93   606.17     0  02:15        4.13        4.16       0.180
  YS02001890           JUNCTION      0.00   606.44     0  02:15           0        4.12       0.198
  YS02001898           JUNCTION      0.00   518.73     0  01:57           0           4       0.044
  YS02001901           JUNCTION      0.00   520.10     0  01:57           0           4       0.147
  YS02001904           JUNCTION      0.00   521.20     0  01:57           0           4       0.116
  YS02001907           JUNCTION      0.00  1165.74     0  01:59           0        9.14       0.243
  YS02001910           JUNCTION      0.00   650.83     0  01:59           0        5.15       0.210
  YS02001915           JUNCTION    345.21   650.79     0  01:59        2.96         5.2       0.100
  YS02001918           JUNCTION      0.00   375.09     0  01:59           0        2.27       0.055
  YS02001619           JUNCTION    336.52   336.52     0  02:16        2.95        2.95       0.414
  YS02001629           JUNCTION      0.00   249.65     0  01:47           0        1.45       1.991
  YS02001641           JUNCTION      0.00   432.70     0  01:52           0        4.87       0.434
  YS02001644           JUNCTION    367.62  1545.57     0  02:47        3.42        14.1       0.187
  YS02001652           JUNCTION      0.00   473.68     0  02:16           0        3.04       0.766
  YS02001655           JUNCTION      0.15   473.10     0  02:16     0.00434        3.07       0.825
  YS02001920           JUNCTION      2.87   374.75     0  01:59      0.0809        2.25       0.115
  YS02001923           JUNCTION      0.04   307.79     0  01:59     0.00106        2.16       0.034
  YS02001926           JUNCTION      0.05   292.36     0  01:58     0.00147        2.14       0.155
  YS02001929           JUNCTION    185.81   316.74     0  01:58        2.12        2.13       0.027
  YS02001658           JUNCTION      0.00   483.84     0  02:13           0        3.09       0.783
  YS02001661           JUNCTION      0.00   763.77     0  02:04           0        3.28       0.193
  YS02001664           JUNCTION    437.54   437.54     0  02:16         3.1        3.28       0.183
  YS02001622           JUNCTION      0.00   336.78     0  02:15           0        2.94       1.088
  YS02001633           JUNCTION    373.18   433.18     0  01:52        3.53        4.93       0.650
  YS02001649           JUNCTION      0.00  1018.42     0  01:57           0        7.67       0.475
  YS02001757           JUNCTION      0.00  2124.51     0  02:01           0        9.29       0.999
  YS02001895           JUNCTION      0.00   517.98     0  01:57           0        4.01       0.112
  YS02001625           JUNCTION      0.00   336.65     0  02:16           0        2.91       1.363
  YS02163301           JUNCTION      0.00   229.95     0  01:48           0        1.45       1.668
  YS02163601           JUNCTION      0.11   433.03     0  01:52      0.0031        4.88       0.617
  YS02164001           JUNCTION      0.00   432.94     0  01:52           0        4.86       0.405
  YS02001647           JUNCTION      0.00   823.09     0  02:47           0         6.9       0.412
  YSB1154              JUNCTION     43.61    43.61     0  01:53       0.163       0.164       0.888
  YSB6556              JUNCTION      0.00    43.64     0  01:53           0       0.165       0.764
  YSB1174              JUNCTION     35.87    35.87     0  01:50        0.12        0.12       1.078
  YSB1171              JUNCTION      0.00    78.03     0  01:52           0       0.291       2.227
  YS02006553           JUNCTION      0.00   683.15     0  03:22           0        7.15       0.200
  YS02006561           JUNCTION      0.00  1073.94     0  01:56           0        10.9       0.003
  YS02006556           JUNCTION      0.00   683.39     0  03:22           0        7.16       0.123
  YS02006558           JUNCTION    522.52  1073.77     0  01:56        3.81        10.9       0.039
  YS02001783           JUNCTION      0.00  1055.34     0  01:56           0        10.9       0.021
  YS02001784           JUNCTION      1.06  1056.39     0  01:56      0.0299        10.9       0.040
  YS02001786           JUNCTION      0.06  1056.06     0  01:56     0.00159        10.9       0.061
  YS02001788           JUNCTION      0.07  1036.61     0  01:56       0.002        10.9       0.070
  YS02001790           JUNCTION      0.15  1028.11     0  01:56     0.00437        10.9       0.130
  YS02001791           JUNCTION      0.00  1067.59     0  01:55           0        10.9       0.123
  YS02001793           JUNCTION      0.00   990.88     0  01:55           0        10.9       0.148
  WS02004139           JUNCTION      0.32   189.06     0  02:50     0.00905        1.35       1.008
  WSC                  OUTFALL       0.00   873.48     0  02:24           0        8.16       0.000
  3                    OUTFALL       0.00   448.65     0  05:30           0        1.26       0.000
  4                    OUTFALL       0.00    14.55     0  01:57           0     0.00406       0.000
  5                    OUTFALL       0.00     0.00     0  00:00           0           0       0.000 ltr
  JK-storage           STORAGE       0.00   969.84     0  02:14           0          11       0.168
  CC-storage           STORAGE       0.00  2124.66     0  02:01           0        5.53       1.185
  XR-storage           STORAGE     844.69   844.69     0  03:01        12.1        12.7      -0.004
  
  
  **********************
  Node Surcharge Summary
  **********************
  
  Surcharging occurs when water rises above the top of the highest conduit.
  ---------------------------------------------------------------------
                                               Max. Height   Min. Depth
                                   Hours       Above Crown    Below Rim
  Node                 Type      Surcharged         Meters       Meters
  ---------------------------------------------------------------------
  WS02004401           JUNCTION        0.43          0.085        1.575
  WS02004402           JUNCTION        0.47          0.090        1.650
  WS02004403           JUNCTION        0.48          0.082        1.948
  WS02004404           JUNCTION        0.60          0.136        2.644
  WS02004406           JUNCTION        0.56          0.091        2.359
  WS02004405           JUNCTION        0.58          0.119        2.681
  WS02006109           JUNCTION        1.36          0.400        1.420
  WS02006110           JUNCTION        0.70          0.170        1.680
  WS02006112           JUNCTION        0.76          0.354        1.326
  WS02006115           JUNCTION        0.13          0.022        2.228
  WS02006116           JUNCTION        0.20          0.032        2.258
  WS02006230           JUNCTION        0.54          0.238        1.332
  WS02006231           JUNCTION        0.54          0.239        1.291
  WS02006232           JUNCTION        0.66          0.338        1.142
  WS02006234           JUNCTION        0.52          0.200        1.040
  WS02006235           JUNCTION        0.53          0.210        1.080
  WS02006238           JUNCTION        0.54          0.227        1.203
  WS02006240           JUNCTION        0.38          0.091        1.299
  WS02006242           JUNCTION        0.40          0.106        0.714
  WS02006239           JUNCTION        0.46          0.138        1.152
  WS02006228           JUNCTION        1.35          0.497        1.703
  YS02001748           JUNCTION        5.98          0.310        0.880
  YS02001751           JUNCTION        6.02          0.719        0.481
  YS02001754           JUNCTION        6.05          0.796        0.354
  YS02001762           JUNCTION        6.09          1.044        0.106
  YS02001765           JUNCTION        6.08          0.990        0.110
  YS02001767           JUNCTION        6.07          0.945        0.085
  YS02001770           JUNCTION        6.07          0.900        0.020
  YS02001774           JUNCTION        6.08          0.986        0.064
  YS02001779           JUNCTION        6.04          0.680        0.000
  YS02001882           JUNCTION        1.78          0.689        0.141
  YS02001884           JUNCTION        1.82          0.715        0.155
  YS02001759           JUNCTION        6.09          1.084        0.126
  YS02001887           JUNCTION        1.89          0.778        0.172
  YS02001890           JUNCTION        1.92          0.760        0.000
  YS02001898           JUNCTION        1.74          0.552        0.188
  YS02001901           JUNCTION        1.86          0.688        0.182
  YS02001904           JUNCTION        1.84          0.645        0.205
  YS02001907           JUNCTION        2.27          0.950        0.000
  YS02001910           JUNCTION        1.96          0.968        0.132
  YS02001915           JUNCTION        1.77          0.914        0.086
  YS02001918           JUNCTION        1.54          0.810        0.000
  YS02001619           JUNCTION        6.02          0.610        0.000
  YS02001629           JUNCTION        6.02          0.470        0.000
  YS02001641           JUNCTION        6.08          0.936        0.164
  YS02001644           JUNCTION        6.08          0.920        0.000
  YS02001652           JUNCTION        6.05          1.083        0.047
  YS02001655           JUNCTION        6.02          1.191        0.009
  YS02001920           JUNCTION        1.57          1.106        0.034
  YS02001923           JUNCTION        0.01          0.820        0.000
  YS02001926           JUNCTION        0.01          0.598        0.302
  YS02001929           JUNCTION        0.01          0.780        0.000
  YS02001658           JUNCTION        5.99          1.243        0.057
  YS02001661           JUNCTION        0.10          1.302        0.088
  YS02001622           JUNCTION        6.02          0.620        0.000
  YS02001633           JUNCTION        6.08          0.926        0.134
  YS02001649           JUNCTION        6.08          1.050        0.000
  YS02001757           JUNCTION        6.12          1.187        0.023
  YS02001895           JUNCTION        1.76          0.578        0.172
  YS02001625           JUNCTION        6.05          0.780        0.000
  YS02163301           JUNCTION        6.07          0.888        0.142
  YS02163601           JUNCTION        6.09          0.989        0.091
  YS02164001           JUNCTION        6.08          0.920        0.180
  YS02001647           JUNCTION        6.05          0.807        0.093
  YS02006553           JUNCTION        2.32          1.179        0.011
  YS02006561           JUNCTION        1.64          1.148        0.002
  YS02006556           JUNCTION        2.12          1.350        0.000
  YS02006558           JUNCTION        2.10          1.400        0.000
  YS02001783           JUNCTION        2.14          1.593        0.007
  YS02001784           JUNCTION        2.19          1.452        0.038
  YS02001786           JUNCTION        2.08          1.430        0.000
  YS02001788           JUNCTION        2.06          1.480        0.000
  YS02001790           JUNCTION        4.41          1.157        0.000
  YS02001791           JUNCTION        4.87          1.920        0.000
  YS02001793           JUNCTION        5.62          1.062        1.538
  
  
  *********************
  Node Flooding Summary
  *********************
  
  Flooding refers to all water that overflows a node, whether it ponds or not.
  --------------------------------------------------------------------------
                                                             Total   Maximum
                                 Maximum   Time of Max       Flood    Ponded
                        Hours       Rate    Occurrence      Volume     Depth
  Node                 Flooded       LPS   days hr:min    10^6 ltr    Meters
  --------------------------------------------------------------------------
  YS02001779              3.65    724.71      0  02:47       3.593     0.000
  YS02001890              0.55     89.74      0  02:15       0.101     0.000
  YS02001907              1.38    644.45      0  01:59       1.983     0.000
  YS02001918              0.01     41.83      0  01:58       0.000     0.000
  YS02001619              0.01     62.06      0  01:47       0.000     0.000
  YS02001629              0.01    189.18      0  01:47       0.001     0.000
  YS02001644              5.73   1545.55      0  02:47      13.073     0.000
  YS02001923              0.01    128.84      0  01:58       0.000     0.000
  YS02001929              0.01     68.76      0  01:58       0.000     0.000
  YS02001622              0.01     72.49      0  01:47       0.000     0.000
  YS02001649              0.02     42.73      0  02:11       0.001     0.000
  YS02001625              1.97    326.88      0  02:16       1.437     0.000
  YS02006556              0.01     28.84      0  01:56       0.000     0.000
  YS02006558              0.01     13.80      0  01:56       0.000     0.000
  YS02001786              0.01     68.92      0  01:56       0.000     0.000
  YS02001788              0.01    136.64      0  01:56       0.000     0.000
  YS02001790              0.01    201.08      0  01:56       0.000     0.000
  YS02001791              0.01    194.60      0  01:56       0.000     0.000
  JK-storage              3.95    968.97      0  02:23       8.062     0.000
  XR-storage              7.18    812.27      0  02:30      10.443     0.000
  
  
  **********************
  Storage Volume Summary
  **********************
  
  --------------------------------------------------------------------------------------------------
                         Average     Avg  Evap Exfil       Maximum     Max    Time of Max    Maximum
                          Volume    Pcnt  Pcnt  Pcnt        Volume    Pcnt     Occurrence    Outflow
  Storage Unit           1000 m3    Full  Loss  Loss       1000 m3    Full    days hr:min        LPS
  --------------------------------------------------------------------------------------------------
  JK-storage               0.248      85     0     0         0.291     100       0  01:56     599.89
  CC-storage               3.154      20     0     0         4.036      26       0  02:44     211.68
  XR-storage               0.914      99     0     0         0.926     100       0  00:39     190.00
  
  
  ***********************
  Outfall Loading Summary
  ***********************
  
  -----------------------------------------------------------
                         Flow       Avg       Max       Total
                         Freq      Flow      Flow      Volume
  Outfall Node           Pcnt       LPS       LPS    10^6 ltr
  -----------------------------------------------------------
  WSC                   99.99    325.36    873.48       8.158
  3                     56.86    126.13    448.65       1.263
  4                      3.07      6.75     14.55       0.004
  5                      0.00      0.00      0.00       0.000
  -----------------------------------------------------------
  System                39.98    458.24   1047.94       9.425
  
  
  ********************
  Link Flow Summary
  ********************
  
  -----------------------------------------------------------------------------
                                 Maximum  Time of Max   Maximum    Max/    Max/
                                  |Flow|   Occurrence   |Veloc|    Full    Full
  Link                 Type          LPS  days hr:min     m/sec    Flow   Depth
  -----------------------------------------------------------------------------
  WS02003066WSF200     CONDUIT    779.24     0  01:59      3.10    0.13    0.27
  WS02006287WS02006284 CONDUIT    655.87     0  01:55      2.36    0.30    0.38
  WS02006284WS02006280 CONDUIT    656.05     0  01:55      2.59    0.27    0.36
  WS02006280WS02006229 CONDUIT    656.06     0  01:55      4.21    0.14    0.25
  WS02006229WS02006228 CONDUIT    755.44     0  01:56      1.50    2.50    1.00
  WS02006256WS02006235 CONDUIT    166.25     0  00:01      2.58    1.76    1.00
  WS02006253WS02006251 CONDUIT    143.45     0  01:57      0.73    0.43    0.71
  WS02006252WS02006251 CONDUIT    200.34     0  04:00      1.97    0.74    0.76
  WS02006251WS02006249 CONDUIT    246.55     0  03:02      0.98    0.71    0.73
  WS02006249WS02006248 CONDUIT    245.47     0  03:03      1.06    1.34    0.76
  WS02006248WS02006247 CONDUIT    244.63     0  03:03      1.03    0.53    0.83
  WS02006247WS02006245 CONDUIT    243.48     0  03:04      1.00    1.93    0.89
  WS02006245WS02006243 CONDUIT    241.94     0  03:04      1.07    0.72    0.94
  WS02006243WS02006242 CONDUIT    240.15     0  03:04      0.93    0.51    0.99
  WS02006242WS02006240 CONDUIT    236.05     0  03:05      0.84    0.94    1.00
  WS02006240WS02006239 CONDUIT    234.90     0  03:10      0.97    0.74    1.00
  WS02006239WS02006238 CONDUIT    235.80     0  03:11      0.80    0.75    1.00
  WS02006238WS02006235 CONDUIT    236.54     0  03:12      1.25    0.53    1.00
  WS02006235WS02006234 CONDUIT    303.04     0  04:12      1.05    3.20    1.00
  WS02006234WS02006232 CONDUIT    302.87     0  04:12      1.13    0.61    1.00
  WS02006232WS02006231 CONDUIT    302.66     0  04:12      0.93    0.63    1.00
  WS02006231WS02006230 CONDUIT    302.46     0  04:13      1.28    4.59    1.00
  WS02006230WS02006229 CONDUIT    312.53     0  04:13      0.86    6.96    1.00
  WS02006228WS02006109 CONDUIT    755.43     0  01:56      1.50    3.30    1.00
  WS02006116WS02004401 CONDUIT    780.75     0  01:57      0.99    1.08    1.00
  WS02006115WS02006116 CONDUIT    780.79     0  01:57      0.99    1.00    1.00
  WS02006113WS02006111 CONDUIT    756.07     0  01:57      2.61    0.91    0.71
  WS02006112WS02006115 CONDUIT    780.85     0  01:57      0.99    0.46    1.00
  WS02006111WS02006112 CONDUIT    756.70     0  01:57      1.72    0.36    0.84
  WS02006110WS02006113 CONDUIT    756.64     0  01:56      1.66    0.69    0.86
  WS02006109WS02006110 CONDUIT    756.63     0  01:56      1.51    1.45    1.00
  WS02004411WS02004412 CONDUIT    779.07     0  01:59      1.12    1.11    0.83
  WS02004401WS02004402 CONDUIT    780.79     0  01:57      0.99    0.94    1.00
  WS02004413WS02003067 CONDUIT    779.07     0  01:59      1.37    0.33    0.68
  WS02004412WS02004413 CONDUIT    779.05     0  01:59      1.05    0.52    0.89
  WS02004410WS02004411 CONDUIT    779.24     0  01:58      1.12    1.06    0.83
  WS02004409WS02004410 CONDUIT    779.75     0  01:58      1.12    1.01    0.83
  WS02004407WS02004409 CONDUIT    780.96     0  01:57      1.61    0.28    0.60
  WS02004406WS02004407 CONDUIT    781.07     0  01:57      1.37    0.35    0.68
  WS02004405WS02004406 CONDUIT    781.02     0  01:57      0.99    1.54    1.00
  WS02004404WS02004405 CONDUIT    780.99     0  01:57      0.99    7.65    1.00
  WS02004403WS02004404 CONDUIT    780.82     0  01:57      0.99    0.56    1.00
  WS02004402WS02004403 CONDUIT    780.81     0  01:57      0.99    1.12    1.00
  WS02004139WS02001211 CONDUIT    180.86     0  02:20      0.53    0.23    0.48
  WS02004138WS02004139 CONDUIT    188.74     0  02:50      2.39    0.04    0.34
  WS02003067WS02003066 CONDUIT    779.20     0  01:59      1.49    0.25    0.47
  WS02001213WS02003059 CONDUIT    184.73     0  02:22      0.43    0.30    0.71
  WS02001212WS02001213 CONDUIT    182.53     0  02:21      0.96    0.28    0.39
  WS02001211WS02001212 CONDUIT    183.42     0  02:21      0.49    0.14    0.53
  WS02003072WS02003073 CONDUIT    872.37     0  02:23      1.68    1.88    0.47
  WS02003069WS02003072 CONDUIT    872.79     0  02:23      1.58    0.42    0.49
  WS02003060WS02003069 CONDUIT    873.18     0  02:22      1.83    0.34    0.44
  WS02003059WS02003060 CONDUIT    187.43     0  02:22      0.56    0.12    0.62
  HS02004901HS02004770 CONDUIT     31.96     0  01:52      0.09    0.12    0.51
  HS02004876HS02004881 CONDUIT    126.38     0  01:55      1.20    1.34    0.15
  HS02004870HS02004876 CONDUIT    102.10     0  01:55      0.82    0.07    0.18
  HS02004842HS02004848 CONDUIT     15.55     0  02:06      0.07    0.01    0.33
  HS02004837HS02004842 CONDUIT     15.96     0  02:07      0.41    0.01    0.35
  HS02004830HS02004837 CONDUIT     62.46     0  01:55      0.66    0.06    0.14
  HS02004824HS02004830 CONDUIT     62.57     0  01:56      0.62    0.08    0.16
  HS02004817HS02004824 CONDUIT    123.43     0  01:59      0.31    0.06    0.58
  HS02004770HS02004777 CONDUIT    165.77     0  01:51      0.46    0.30    0.52
  HS02004799HS02004480 CONDUIT    414.30     0  01:53      1.02    0.52    0.58
  HS02004792HS02004799 CONDUIT    377.21     0  01:52      1.15    0.23    0.47
  HS02004788HS02004792 CONDUIT    218.44     0  01:53      1.24    0.14    0.25
  HS02004785HS02004788 CONDUIT    165.54     0  01:53      0.86    1.25    0.27
  HS02004777HS02004785 CONDUIT    165.44     0  01:52      0.54    0.20    0.44
  HS02004480HS02004478 CONDUIT    492.14     0  01:53      1.52    2.07    0.46
  HS02004479HS02004480 CONDUIT     78.31     0  01:54      0.27    0.08    0.55
  HS02004862HS02004870 CONDUIT     77.52     0  01:55      0.79    0.08    0.14
  HS02004848HS02004852 CONDUIT     36.10     0  01:55      0.52    0.04    0.10
  HS02004856HS02004862 CONDUIT     54.46     0  01:55      0.59    0.05    0.13
  HS02004852HS02004856 CONDUIT     36.15     0  01:56      0.33    0.04    0.16
  HS02004802HS02004478 CONDUIT    170.22     0  01:58      0.53    0.15    0.47
  HS02004478WS02006287 CONDUIT    655.81     0  01:54      2.08    0.18    0.35
  HS02004817HS02004807 CONDUIT    125.36     0  01:59      0.24    0.07    0.75
  HS02004807HS02004802 CONDUIT    169.25     0  01:58      0.47    0.32    0.53
  YS02001759YS02001757 CONDUIT    854.42     0  02:03      1.09    0.61    1.00
  YS02001762YS02001759 CONDUIT    429.99     0  02:02      0.55    0.50    1.00
  YS02001765YS02001762 CONDUIT    430.32     0  02:02      0.55    0.40    1.00
  YS02001770YS02001767 CONDUIT    429.80     0  02:02      0.55    1.70    1.00
  YS02001774YS02001770 CONDUIT    724.59     0  02:47      0.92    0.46    1.00
  YS02001779YS02001774 CONDUIT    724.73     0  02:47      0.92    0.37    1.00
  YS02001649YS02001757 CONDUIT   1018.84     0  01:57      1.30    0.62    1.00
  YS02001767YS02001765 CONDUIT    430.54     0  02:02      0.55    0.54    1.00
  YS02006561YS02001783 CONDUIT   1055.34     0  01:56      2.26    0.55    1.00
  YS02001783YS02001784 CONDUIT   1055.33     0  01:56      2.10    1.45    1.00
  YS02001784YS02001785 CONDUIT   1056.01     0  01:56      2.11    2.46    1.00
  YS02001788YS02001790 CONDUIT   1027.95     0  01:56      2.55    0.76    1.00
  YS02001790YS02001791 CONDUIT   1067.59     0  01:55      3.18    1.16    1.00
  YS02001791YS02001793 CONDUIT    990.88     0  01:55      6.13    0.43    1.00
  YS02001910YS02001907 CONDUIT    650.99     0  01:59      0.83    0.37    1.00
  YS02001786YS02001788 CONDUIT   1036.54     0  01:56      2.36    2.00    1.00
  YS02001915YS02001910 CONDUIT    650.83     0  01:59      0.83    0.32    1.00
  YS02001918YS02001915 CONDUIT    375.10     0  01:59      0.48    0.21    1.00
  YS02001923YS02001920 CONDUIT    371.88     0  01:59      0.78    0.17    1.00
  YS02001926YS02001923 CONDUIT    307.75     0  01:59      0.87    0.44    1.00
  YS02001929YS02001926 CONDUIT    250.35     0  01:58      0.93    0.12    1.00
  YS02001920YS02001918 CONDUIT    375.09     0  01:59      0.75    0.36    1.00
  YS02001629YS02163301 CONDUIT    229.95     0  01:48      0.29    0.28    1.00
  YS02001619YS02001622 CONDUIT    336.78     0  02:15      0.76    0.50    1.00
  YS02001622YS02001625 CONDUIT    336.65     0  02:16      0.43    0.18    1.00
  YS02001625YS02001629 CONDUIT    210.13     0  01:47      0.31    0.10    1.00
  YS02163301YS02001633 CONDUIT    229.98     0  01:48      0.29    0.22    1.00
  YS02163601YS02164001 CONDUIT    432.94     0  01:52      0.55    0.38    1.00
  YS02164001YS02001641 CONDUIT    432.70     0  01:52      0.55    0.59    1.00
  YS02001641YS02001644 CONDUIT    432.43     0  01:52      0.55    1.40    1.00
  YS02001647YS02001649 CONDUIT    823.09     0  02:47      1.05    0.43    1.00
  YS02006553YS02006556 CONDUIT    683.39     0  03:22      0.87    0.58    1.00
  YS02006556YS02006558 CONDUIT    684.07     0  03:22      0.87    0.54    1.00
  YSB6556YSB1171       CONDUIT     43.98     0  01:54      0.13    0.05    0.82
  YS02001907YS02006553 CONDUIT    683.15     0  03:22      0.76    0.80    1.00
  YS02006558YS02006561 CONDUIT   1073.94     0  01:56      3.80    2.37    1.00
  YS02001633YS02163601 CONDUIT    432.92     0  01:52      0.55    0.45    1.00
  YS02001644YS02001647 CONDUIT    823.27     0  02:47      1.05    0.48    1.00
  YS02001745YS02001748 CONDUIT    396.30     0  02:16      1.73    0.15    0.98
  YS02001748YS02001751 CONDUIT    396.25     0  02:16      1.25    0.20    1.00
  YS02001751YS02001754 CONDUIT    395.99     0  02:16      1.03    0.19    1.00
  YS02001754YS02001757 CONDUIT    396.47     0  02:16      0.50    0.16    1.00
  YS02001882YS02001884 CONDUIT     22.21     0  01:53      0.12    0.03    1.00
  YS02001884YS02001887 CONDUIT     46.43     0  01:52      0.09    0.06    1.00
  YS02001890YS02001895 CONDUIT    517.98     0  01:57      0.66    0.24    1.00
  YS02001895YS02001898 CONDUIT    518.73     0  01:57      0.66    0.90    1.00
  YS02001898YS02001901 CONDUIT    520.10     0  01:57      0.66    0.34    1.00
  YS02001901YS02001904 CONDUIT    521.20     0  01:57      0.66    0.81    1.00
  YS02001904YS02001907 CONDUIT    522.83     0  01:57      0.67    0.18    1.00
  YS02001887YS02001890 CONDUIT    606.44     0  02:15      0.77    1.04    1.00
  YS02001652YS02001649 CONDUIT    473.88     0  02:15      0.60    0.23    1.00
  YS02001655YS02001652 CONDUIT    473.68     0  02:16      1.09    0.23    1.00
  YS02001658YS02001655 CONDUIT    472.94     0  02:16      1.45    0.20    1.00
  YS02001661YS02001658 CONDUIT    483.84     0  02:13      1.85    0.19    1.00
  YS02001664YS02001661 CONDUIT    763.77     0  02:04      1.75    0.24    0.77
  YSB1154YSB6556       CONDUIT     43.64     0  01:53      0.17    0.08    0.72
  YSB1174YSB1171       CONDUIT     35.15     0  01:50      0.10    0.05    0.83
  YSB1171HS02004479    CONDUIT     78.00     0  01:53      0.54    0.05    0.67
  HS02004881HS02006253 CONDUIT    139.58     0  01:55      2.67    0.03    0.17
  YS02001793JiankangQianchi CONDUIT    969.84     0  02:14     13.01    0.08    1.00
  YS02001757CaochengTiaoxuchi CONDUIT   2124.66     0  02:01      3.63    0.93    1.00
  WSF200WS02003060     CONDUIT    779.28     0  01:59      2.26    0.17    0.35
  1                    CONDUIT    873.48     0  02:24      3.21    0.30    0.38
  2                    CONDUIT     14.55     0  01:57      2.76    0.03    0.13
  3                    CONDUIT    448.65     0  05:30      9.60    0.71    0.63
  4                    CONDUIT      0.00     0  00:00      0.00    0.00    0.00
  CC-Pump-1            PUMP       200.00     0  03:00              1.00
  CC-Pump-2            PUMP       200.00     0  04:00              1.00
  JK-Pump-1            PUMP       299.95     0  05:30              1.00
  JK-Pump-2            PUMP       300.00     0  00:00              1.00
  XR-Pump-1            PUMP        95.00     0  01:40              1.00
  XR-Pump-2            PUMP        94.98     0  05:30              1.00
  XR-Pump-3            PUMP        94.99     0  03:50              1.00
  XR-Pump-4            PUMP        95.00     0  00:00              1.00
  
  
  ***************************
  Flow Classification Summary
  ***************************
  
  -------------------------------------------------------------------------------------
                      Adjusted    ---------- Fraction of Time in Flow Class ---------- 
                       /Actual         Up    Down  Sub   Sup   Up    Down  Norm  Inlet 
  Conduit               Length    Dry  Dry   Dry   Crit  Crit  Crit  Crit  Ltd   Ctrl  
  -------------------------------------------------------------------------------------
  WS02003066WSF200        1.00   0.09  0.00  0.00  0.00  0.91  0.00  0.00  0.67  0.00
  WS02006287WS02006284    1.00   0.05  0.01  0.00  0.57  0.37  0.00  0.00  0.65  0.00
  WS02006284WS02006280    1.00   0.06  0.00  0.00  0.00  0.00  0.00  0.94  0.00  0.00
  WS02006280WS02006229    1.00   0.06  0.00  0.00  0.00  0.00  0.00  0.94  0.00  0.00
  WS02006229WS02006228    1.00   0.00  0.00  0.00  0.98  0.00  0.00  0.02  0.00  0.00
  WS02006256WS02006235    1.00   0.00  0.00  0.00  1.00  0.00  0.00  0.00  0.00  0.00
  WS02006253WS02006251    1.00   0.04  0.02  0.00  0.94  0.00  0.01  0.00  0.00  0.00
  WS02006252WS02006251    1.00   0.29  0.00  0.00  0.00  0.00  0.71  0.00  0.00  0.00
  WS02006251WS02006249    1.00   0.00  0.00  0.00  1.00  0.00  0.00  0.00  0.41  0.00
  WS02006249WS02006248    1.00   0.00  0.03  0.00  0.72  0.00  0.25  0.00  0.00  0.00
  WS02006248WS02006247    1.00   0.03  0.00  0.00  0.97  0.00  0.00  0.00  0.31  0.00
  WS02006247WS02006245    1.00   0.03  0.00  0.00  0.96  0.00  0.00  0.01  0.00  0.00
  WS02006245WS02006243    1.00   0.02  0.01  0.00  0.92  0.00  0.00  0.06  0.05  0.00
  WS02006243WS02006242    1.00   0.01  0.01  0.00  0.98  0.00  0.00  0.00  0.32  0.00
  WS02006242WS02006240    1.00   0.01  0.00  0.00  0.98  0.00  0.01  0.00  0.00  0.00
  WS02006240WS02006239    1.00   0.00  0.00  0.00  0.93  0.00  0.00  0.06  0.03  0.00
  WS02006239WS02006238    1.00   0.00  0.00  0.00  1.00  0.00  0.00  0.00  0.06  0.00
  WS02006238WS02006235    1.00   0.00  0.00  0.00  1.00  0.00  0.00  0.00  0.00  0.00
  WS02006235WS02006234    1.00   0.00  0.00  0.00  0.95  0.00  0.05  0.00  0.00  0.00
  WS02006234WS02006232    1.00   0.00  0.00  0.00  1.00  0.00  0.00  0.00  0.05  0.00
  WS02006232WS02006231    1.00   0.00  0.00  0.00  0.99  0.00  0.01  0.00  0.00  0.00
  WS02006231WS02006230    1.00   0.00  0.00  0.00  0.31  0.00  0.68  0.00  0.00  0.00
  WS02006230WS02006229    1.00   0.00  0.00  0.00  0.98  0.00  0.00  0.02  0.01  0.00
  WS02006228WS02006109    1.00   0.00  0.00  0.00  0.99  0.00  0.00  0.00  0.01  0.00
  WS02006116WS02004401    1.00   0.03  0.00  0.00  0.97  0.00  0.00  0.00  0.00  0.00
  WS02006115WS02006116    1.00   0.03  0.00  0.00  0.96  0.00  0.00  0.01  0.00  0.00
  WS02006113WS02006111    1.00   0.03  0.00  0.00  0.04  0.93  0.00  0.00  0.20  0.00
  WS02006112WS02006115    1.00   0.03  0.00  0.00  0.96  0.00  0.00  0.00  0.00  0.00
  WS02006111WS02006112    1.00   0.03  0.00  0.00  0.97  0.00  0.00  0.00  0.90  0.00
  WS02006110WS02006113    1.00   0.02  0.01  0.00  0.97  0.00  0.00  0.00  0.00  0.00
  WS02006109WS02006110    1.00   0.00  0.01  0.00  0.98  0.00  0.01  0.00  0.00  0.00
  WS02004411WS02004412    1.00   0.05  0.00  0.00  0.95  0.00  0.00  0.00  0.01  0.00
  WS02004401WS02004402    1.00   0.03  0.00  0.00  0.97  0.00  0.00  0.00  0.00  0.00
  WS02004413WS02003067    1.00   0.06  0.02  0.00  0.00  0.00  0.92  0.00  0.00  0.00
  WS02004412WS02004413    1.00   0.05  0.00  0.00  0.95  0.00  0.00  0.00  0.03  0.00
  WS02004410WS02004411    1.00   0.05  0.00  0.00  0.95  0.00  0.00  0.00  0.03  0.00
  WS02004409WS02004410    1.00   0.05  0.00  0.00  0.95  0.00  0.00  0.00  0.02  0.00
  WS02004407WS02004409    1.00   0.05  0.00  0.00  0.94  0.00  0.00  0.00  0.89  0.00
  WS02004406WS02004407    1.00   0.00  0.05  0.00  0.95  0.00  0.00  0.00  0.00  0.00
  WS02004405WS02004406    1.00   0.00  0.00  0.00  1.00  0.00  0.00  0.00  0.01  0.00
  WS02004404WS02004405    1.00   0.00  0.00  0.00  1.00  0.00  0.00  0.00  0.00  0.00
  WS02004403WS02004404    1.00   0.00  0.04  0.00  0.96  0.00  0.00  0.00  0.01  0.00
  WS02004402WS02004403    1.00   0.04  0.00  0.00  0.96  0.00  0.00  0.00  0.00  0.00
  WS02004139WS02001211    1.00   0.00  0.00  0.00  0.99  0.00  0.01  0.00  0.00  0.00
  WS02004138WS02004139    1.00   0.00  0.07  0.00  0.91  0.01  0.00  0.00  1.00  0.00
  WS02003067WS02003066    1.00   0.08  0.01  0.00  0.92  0.00  0.00  0.00  0.00  0.00
  WS02001213WS02003059    1.00   0.00  0.01  0.00  0.99  0.00  0.00  0.00  0.00  0.00
  WS02001212WS02001213    1.00   0.01  0.00  0.00  0.54  0.00  0.45  0.00  0.00  0.00
  WS02001211WS02001212    1.00   0.00  0.01  0.00  0.99  0.00  0.00  0.00  0.00  0.00
  WS02003072WS02003073    1.00   0.00  0.00  0.00  0.00  0.00  0.00  1.00  0.00  0.00
  WS02003069WS02003072    1.00   0.00  0.00  0.00  0.99  0.01  0.00  0.00  0.74  0.00
  WS02003060WS02003069    1.00   0.00  0.00  0.00  0.96  0.04  0.00  0.00  0.51  0.00
  WS02003059WS02003060    1.00   0.00  0.00  0.00  0.99  0.01  0.00  0.00  0.02  0.00
  HS02004901HS02004770    1.00   0.06  0.00  0.00  0.94  0.00  0.00  0.00  0.00  0.00
  HS02004876HS02004881    1.00   0.03  0.00  0.00  0.81  0.16  0.00  0.00  0.00  0.00
  HS02004870HS02004876    1.00   0.01  0.00  0.00  0.99  0.00  0.00  0.00  0.95  0.00
  HS02004842HS02004848    1.00   0.00  0.06  0.00  0.94  0.00  0.00  0.00  0.57  0.00
  HS02004837HS02004842    1.00   0.00  0.00  0.00  0.99  0.01  0.00  0.00  0.11  0.00
  HS02004830HS02004837    1.00   0.00  0.00  0.00  1.00  0.00  0.00  0.00  0.99  0.00
  HS02004824HS02004830    1.00   0.00  0.00  0.00  1.00  0.00  0.00  0.00  0.03  0.00
  HS02004817HS02004824    1.00   0.00  0.00  0.00  1.00  0.00  0.00  0.00  0.94  0.00
  HS02004770HS02004777    1.00   0.00  0.06  0.00  0.94  0.00  0.00  0.00  0.03  0.00
  HS02004799HS02004480    1.00   0.00  0.03  0.00  0.93  0.00  0.03  0.00  0.00  0.00
  HS02004792HS02004799    1.00   0.00  0.00  0.00  0.98  0.02  0.00  0.00  0.98  0.00
  HS02004788HS02004792    1.00   0.00  0.00  0.00  0.98  0.02  0.00  0.00  0.98  0.00
  HS02004785HS02004788    1.00   0.00  0.00  0.00  1.00  0.00  0.00  0.00  0.00  0.00
  HS02004777HS02004785    1.00   0.00  0.00  0.00  1.00  0.00  0.00  0.00  0.13  0.00
  HS02004480HS02004478    1.00   0.06  0.00  0.00  0.61  0.00  0.00  0.33  0.00  0.00
  HS02004479HS02004480    1.00   0.04  0.00  0.00  0.96  0.00  0.00  0.00  0.12  0.00
  HS02004862HS02004870    1.00   0.00  0.00  0.00  1.00  0.00  0.00  0.00  0.04  0.00
  HS02004848HS02004852    1.00   0.06  0.00  0.00  0.94  0.00  0.00  0.00  0.78  0.00
  HS02004856HS02004862    1.00   0.00  0.07  0.00  0.93  0.00  0.00  0.00  0.82  0.00
  HS02004852HS02004856    1.00   0.06  0.00  0.00  0.94  0.00  0.00  0.00  0.77  0.00
  HS02004802HS02004478    1.00   0.06  0.00  0.00  0.94  0.00  0.00  0.00  0.03  0.00
  HS02004478WS02006287    1.00   0.07  0.00  0.00  0.65  0.28  0.00  0.00  0.62  0.00
  HS02004817HS02004807    1.00   0.00  0.06  0.00  0.94  0.00  0.00  0.00  0.01  0.00
  HS02004807HS02004802    1.00   0.06  0.00  0.00  0.94  0.00  0.00  0.00  0.00  0.00
  YS02001759YS02001757    1.00   0.00  0.00  0.00  1.00  0.00  0.00  0.00  0.16  0.00
  YS02001762YS02001759    1.00   0.00  0.00  0.00  1.00  0.00  0.00  0.00  0.03  0.00
  YS02001765YS02001762    1.00   0.00  0.00  0.00  1.00  0.00  0.00  0.00  0.14  0.00
  YS02001770YS02001767    1.00   0.00  0.00  0.00  1.00  0.00  0.00  0.00  0.00  0.00
  YS02001774YS02001770    1.00   0.00  0.06  0.00  0.94  0.00  0.00  0.00  0.03  0.00
  YS02001779YS02001774    1.00   0.00  0.00  0.00  1.00  0.00  0.00  0.00  0.18  0.00
  YS02001649YS02001757    1.00   0.00  0.00  0.00  1.00  0.00  0.00  0.00  0.16  0.00
  YS02001767YS02001765    1.00   0.00  0.00  0.00  1.00  0.00  0.00  0.00  0.00  0.00
  YS02006561YS02001783    1.00   0.07  0.00  0.00  0.65  0.27  0.00  0.00  0.51  0.00
  YS02001783YS02001784    1.00   0.00  0.07  0.00  0.93  0.00  0.00  0.00  0.00  0.00
  YS02001784YS02001785    1.00   0.00  0.00  0.00  1.00  0.00  0.00  0.00  0.18  0.00
  YS02001788YS02001790    1.00   0.00  0.00  0.00  0.87  0.13  0.00  0.00  0.27  0.00
  YS02001790YS02001791    1.00   0.00  0.00  0.00  0.84  0.16  0.00  0.00  0.06  0.00
  YS02001791YS02001793    1.00   0.00  0.00  0.00  0.86  0.14  0.00  0.00  0.02  0.00
  YS02001910YS02001907    1.00   0.00  0.00  0.00  0.96  0.00  0.00  0.03  0.12  0.00
  YS02001786YS02001788    1.00   0.00  0.00  0.00  0.79  0.21  0.00  0.00  0.00  0.00
  YS02001915YS02001910    1.00   0.00  0.00  0.00  0.98  0.02  0.00  0.00  0.16  0.00
  YS02001918YS02001915    1.00   0.00  0.01  0.00  0.97  0.02  0.00  0.00  0.52  0.00
  YS02001923YS02001920    1.00   0.00  0.00  0.00  1.00  0.00  0.00  0.00  0.74  0.00
  YS02001926YS02001923    1.00   0.00  0.05  0.00  0.26  0.00  0.70  0.00  0.00  0.00
  YS02001929YS02001926    1.00   0.00  0.06  0.00  0.94  0.00  0.00  0.00  0.66  0.00
  YS02001920YS02001918    1.00   0.00  0.01  0.00  0.99  0.00  0.00  0.00  0.00  0.00
  YS02001629YS02163301    1.00   0.07  0.00  0.00  0.93  0.00  0.00  0.00  0.00  0.00
  YS02001619YS02001622    1.00   0.06  0.00  0.00  0.94  0.00  0.00  0.00  0.00  0.00
  YS02001622YS02001625    1.00   0.06  0.00  0.00  0.94  0.00  0.00  0.00  0.05  0.00
  YS02001625YS02001629    1.00   0.06  0.01  0.00  0.91  0.00  0.01  0.00  0.00  0.00
  YS02163301YS02001633    1.00   0.00  0.07  0.00  0.93  0.00  0.00  0.00  0.00  0.00
  YS02163601YS02164001    1.00   0.00  0.05  0.00  0.95  0.00  0.00  0.00  0.00  0.00
  YS02164001YS02001641    1.00   0.01  0.04  0.00  0.95  0.00  0.00  0.00  0.06  0.00
  YS02001641YS02001644    1.00   0.00  0.01  0.00  0.99  0.00  0.00  0.00  0.00  0.00
  YS02001647YS02001649    1.00   0.00  0.07  0.00  0.93  0.00  0.00  0.00  0.01  0.00
  YS02006553YS02006556    1.00   0.02  0.00  0.00  0.98  0.00  0.00  0.00  0.03  0.00
  YS02006556YS02006558    1.00   0.00  0.00  0.00  1.00  0.00  0.00  0.00  0.00  0.00
  YSB6556YSB1171          1.00   0.04  0.02  0.00  0.94  0.00  0.00  0.00  0.00  0.00
  YS02001907YS02006553    1.00   0.00  0.03  0.00  0.97  0.00  0.00  0.00  0.00  0.00
  YS02006558YS02006561    1.00   0.07  0.00  0.00  0.27  0.65  0.00  0.00  0.44  0.00
  YS02001633YS02163601    1.00   0.00  0.01  0.00  0.99  0.00  0.00  0.00  0.15  0.00
  YS02001644YS02001647    1.00   0.00  0.07  0.00  0.93  0.00  0.00  0.00  0.00  0.00
  YS02001745YS02001748    1.00   0.00  0.00  0.00  0.89  0.00  0.00  0.10  0.01  0.00
  YS02001748YS02001751    1.00   0.00  0.00  0.00  0.97  0.03  0.00  0.00  0.14  0.00
  YS02001751YS02001754    1.00   0.00  0.00  0.00  0.92  0.00  0.00  0.08  0.01  0.00
  YS02001754YS02001757    1.00   0.00  0.00  0.00  0.99  0.01  0.00  0.00  0.18  0.00
  YS02001882YS02001884    1.00   0.06  0.00  0.00  0.93  0.00  0.00  0.00  0.00  0.00
  YS02001884YS02001887    1.00   0.04  0.01  0.00  0.94  0.00  0.00  0.00  0.00  0.00
  YS02001890YS02001895    1.00   0.00  0.06  0.00  0.93  0.00  0.00  0.00  0.00  0.00
  YS02001895YS02001898    1.00   0.07  0.00  0.00  0.92  0.00  0.01  0.00  0.00  0.00
  YS02001898YS02001901    1.00   0.07  0.00  0.00  0.93  0.00  0.00  0.00  0.01  0.00
  YS02001901YS02001904    1.00   0.07  0.00  0.00  0.93  0.00  0.00  0.00  0.00  0.00
  YS02001904YS02001907    1.00   0.00  0.06  0.00  0.93  0.00  0.00  0.00  0.00  0.00
  YS02001887YS02001890    1.00   0.00  0.00  0.00  0.96  0.00  0.03  0.00  0.00  0.00
  YS02001652YS02001649    1.00   0.00  0.00  0.00  1.00  0.00  0.00  0.00  0.16  0.00
  YS02001655YS02001652    1.00   0.00  0.00  0.00  0.92  0.00  0.00  0.08  0.01  0.00
  YS02001658YS02001655    1.00   0.00  0.06  0.00  0.91  0.03  0.00  0.00  0.02  0.00
  YS02001661YS02001658    1.00   0.06  0.00  0.00  0.89  0.05  0.00  0.00  0.00  0.00
  YS02001664YS02001661    1.00   0.06  0.00  0.00  0.90  0.04  0.00  0.00  0.11  0.00
  YSB1154YSB6556          1.00   0.06  0.00  0.00  0.94  0.00  0.00  0.00  0.02  0.00
  YSB1174YSB1171          1.00   0.04  0.01  0.00  0.95  0.00  0.00  0.00  0.00  0.00
  YSB1171HS02004479       1.00   0.04  0.00  0.00  0.96  0.00  0.00  0.00  0.11  0.00
  HS02004881HS02006253    1.00   0.04  0.00  0.00  0.31  0.12  0.00  0.53  0.27  0.00
  YS02001793JiankangQianchi    1.00   0.00  0.00  0.00  0.91  0.09  0.00  0.00  0.11  0.00
  YS02001757CaochengTiaoxuchi    1.00   0.00  0.08  0.00  0.86  0.05  0.00  0.00  0.00  0.00
  WSF200WS02003060        1.00   0.00  0.09  0.00  0.22  0.70  0.00  0.00  0.30  0.00
  1                       1.00   0.00  0.00  0.00  0.00  1.00  0.00  0.00  0.33  0.00
  2                       1.00   0.97  0.00  0.00  0.00  0.03  0.00  0.00  0.01  0.00
  3                       1.00   0.43  0.00  0.00  0.00  0.57  0.00  0.00  0.33  0.00
  4                       1.00   1.00  0.00  0.00  0.00  0.00  0.00  0.00  0.00  0.00
  
  
  *************************
  Conduit Surcharge Summary
  *************************
  
  ----------------------------------------------------------------------------
                                                           Hours        Hours 
                         --------- Hours Full --------   Above Full   Capacity
  Conduit                Both Ends  Upstream  Dnstream   Normal Flow   Limited
  ----------------------------------------------------------------------------
  WS02006229WS02006228        1.35      1.38      1.35      2.19         1.35
  WS02006256WS02006235        5.00      5.00      7.09      2.70         0.01
  WS02006249WS02006248        0.01      0.01      0.01      1.08         0.01
  WS02006247WS02006245        0.01      0.01      0.01      1.97         0.01
  WS02006243WS02006242        0.01      0.01      0.40      0.01         0.01
  WS02006242WS02006240        0.38      0.38      0.45      0.01         0.01
  WS02006240WS02006239        0.39      0.39      0.46      0.01         0.01
  WS02006239WS02006238        0.50      0.50      0.54      0.01         0.01
  WS02006238WS02006235        0.54      0.54      0.56      0.01         0.01
  WS02006235WS02006234        0.52      0.52      0.52      4.65         0.04
  WS02006234WS02006232        0.54      0.54      0.66      0.01         0.01
  WS02006232WS02006231        0.54      0.54      0.66      0.01         0.01
  WS02006231WS02006230        0.54      0.54      0.56      5.19         0.04
  WS02006230WS02006229        1.53      1.78      1.53      5.75         1.48
  WS02006228WS02006109        1.36      1.45      1.36      3.10         1.36
  WS02006116WS02004401        0.42      0.42      0.43      0.33         0.33
  WS02006115WS02006116        0.18      0.18      0.20      0.03         0.05
  WS02006112WS02006115        0.13      0.13      0.76      0.01         0.01
  WS02006111WS02006112        0.01      0.01      2.10      0.01         0.01
  WS02006110WS02006113        0.01      0.01      1.41      0.01         0.01
  WS02006109WS02006110        0.70      0.70      1.45      0.71         0.01
  WS02004411WS02004412        0.01      0.01      0.01      0.39         0.01
  WS02004401WS02004402        0.43      0.43      0.47      0.01         0.01
  WS02004410WS02004411        0.01      0.01      0.01      0.31         0.01
  WS02004409WS02004410        0.01      0.01      0.01      0.07         0.01
  WS02004406WS02004407        0.01      0.01      0.56      0.01         0.01
  WS02004405WS02004406        0.56      0.58      0.56      0.74         0.56
  WS02004404WS02004405        0.58      0.60      0.58      5.47         0.58
  WS02004403WS02004404        0.48      0.48      0.60      0.01         0.01
  WS02004402WS02004403        0.47      0.47      0.48      0.41         0.40
  WS02003072WS02003073        0.01      0.01      0.01      1.59         0.01
  HS02004876HS02004881        0.01      0.01      0.01      0.49         0.01
  HS02004785HS02004788        0.01      0.01      0.01      0.35         0.01
  HS02004480HS02004478        0.01      0.01      0.01      0.79         0.01
  YS02001759YS02001757        6.09      6.09      6.12      0.01         0.01
  YS02001762YS02001759        6.09      6.09      6.09      0.01         0.01
  YS02001765YS02001762        6.08      6.08      6.09      0.01         0.01
  YS02001770YS02001767        6.07      6.07      6.07      0.77         0.55
  YS02001774YS02001770        6.07      6.07      6.08      0.01         0.01
  YS02001779YS02001774        6.04      6.04      6.08      0.01         0.01
  YS02001649YS02001757        6.08      6.08      6.12      0.01         0.01
  YS02001767YS02001765        6.07      6.07      6.08      0.01         0.01
  YS02006561YS02001783        1.64      1.64      2.14      0.01         0.01
  YS02001783YS02001784        2.12      2.14      2.19      2.04         1.95
  YS02001784YS02001785        2.08      2.19      2.08      2.74         2.08
  YS02001788YS02001790        2.06      2.06      4.41      0.01         0.01
  YS02001790YS02001791        4.41      4.41      4.87      1.54         1.49
  YS02001791YS02001793        4.87      4.87      5.81      0.01         0.01
  YS02001910YS02001907        1.96      1.96      2.26      0.01         0.01
  YS02001786YS02001788        2.06      2.08      2.06      2.42         2.06
  YS02001915YS02001910        1.77      1.77      1.96      0.01         0.01
  YS02001918YS02001915        1.54      1.54      1.77      0.01         0.01
  YS02001923YS02001920        1.34      1.34      1.57      0.01         0.01
  YS02001926YS02001923        0.01      0.01      0.01      0.01         0.01
  YS02001929YS02001926        0.01      0.01      0.01      0.01         0.01
  YS02001920YS02001918        1.54      1.54      1.57      0.01         0.01
  YS02001629YS02163301        6.06      6.06      6.07      0.01         0.01
  YS02001619YS02001622        6.02      6.02      6.02      0.01         0.01
  YS02001622YS02001625        6.02      6.02      6.05      0.01         0.01
  YS02001625YS02001629        6.02      6.02      6.05      0.01         0.01
  YS02163301YS02001633        6.07      6.07      6.08      0.01         0.01
  YS02163601YS02164001        6.08      6.08      6.09      0.01         0.01
  YS02164001YS02001641        6.08      6.08      6.08      0.01         0.02
  YS02001641YS02001644        6.08      6.08      6.08      2.21         2.27
  YS02001647YS02001649        6.05      6.05      6.08      0.01         0.01
  YS02006553YS02006556        2.12      2.12      2.32      0.01         0.01
  YS02006556YS02006558        2.19      2.19      2.37      0.01         0.01
  YSB6556YSB1171              0.01      0.01      0.14      0.01         0.01
  YS02001907YS02006553        2.76      2.76      2.96      0.01         0.01
  YS02006558YS02006561        1.80      2.10      1.80      2.63         1.80
  YS02001633YS02163601        6.08      6.08      6.09      0.01         0.01
  YS02001644YS02001647        6.05      6.05      6.08      0.01         0.01
  YS02001745YS02001748        0.01      0.01      5.98      0.01         0.01
  YS02001748YS02001751        6.00      6.00      6.02      0.01         0.01
  YS02001751YS02001754        6.02      6.02      6.05      0.01         0.01
  YS02001754YS02001757        6.05      6.05      6.12      0.01         0.01
  YS02001882YS02001884        1.78      1.78      1.82      0.01         0.01
  YS02001884YS02001887        1.86      1.86      1.89      0.01         0.01
  YS02001890YS02001895        1.76      1.76      1.98      0.01         0.01
  YS02001895YS02001898        1.74      1.74      1.76      0.01         0.01
  YS02001898YS02001901        1.76      1.76      1.86      0.01         0.01
  YS02001901YS02001904        1.84      1.84      1.86      0.01         0.01
  YS02001904YS02001907        1.84      1.84      2.34      0.01         0.01
  YS02001887YS02001890        1.92      1.92      1.94      0.20         0.01
  YS02001652YS02001649        6.06      6.06      6.08      0.01         0.01
  YS02001655YS02001652        6.02      6.02      6.05      0.01         0.01
  YS02001658YS02001655        5.99      5.99      6.02      0.01         0.01
  YS02001661YS02001658        0.09      0.09      5.99      0.01         0.01
  YS02001664YS02001661        0.01      0.01      1.26      0.01         0.01
  YS02001793JiankangQianchi        5.62      5.62      6.12      0.01         0.01
  YS02001757CaochengTiaoxuchi        5.65      5.65      6.12      0.01         0.01
  
  
  ***************
  Pumping Summary
  ***************
  
  ---------------------------------------------------------------------------------------------------------
                                                  Min       Avg       Max     Total     Power    % Time Off
                        Percent   Number of      Flow      Flow      Flow    Volume     Usage    Pump Curve
  Pump                 Utilized   Start-Ups       LPS       LPS       LPS  10^6 ltr     Kw-hr    Low   High
  ---------------------------------------------------------------------------------------------------------
  CC-Pump-1               10.63           2      0.00    132.03    200.00     0.360      0.16    0.0    0.0
  CC-Pump-2               31.92           5      0.00    131.14    200.00     1.080      0.60    0.0    0.0
  JK-Pump-1               12.76           3      0.00    168.41    299.95     0.540      2.41    0.0    0.0
  JK-Pump-2               55.32           7      0.00    173.26    300.00     2.129     15.27    0.0    0.0
  XR-Pump-1               38.29           8      0.00     55.63     95.00     0.570      2.78    0.0    0.0
  XR-Pump-2               12.75           3      0.00     50.50     94.98     0.171      0.75    0.0    0.0
  XR-Pump-3               17.01           4      0.00     49.99     94.99     0.228      1.01    0.0    0.0
  XR-Pump-4               25.55           6      0.00     53.17     95.00     0.371      2.18    0.0    0.0
  

  Analysis begun on:  Tue Jan  4 16:29:25 2022
  Analysis ended on:  Tue Jan  4 16:29:28 2022
  Total elapsed time: 00:00:03