
  EPA STORM WATER MANAGEMENT MODEL - VERSION 5.1 (Build 5.3.0.dev0)
  --------------------------------------------------------------

  WARNING 04: minimum elevation drop used for Conduit WS02004404WS02004405
  WARNING 03: negative offset ignored for Link YS02001904YS02001907
  
  *********************************************************
  NOTE: The summary statistics displayed in this report are
  based on results found at every computational time step,  
  not just on results from each reporting time step.
  *********************************************************
  
  ****************
  Analysis Options
  ****************
  Flow Units ............... LPS
  Process Models:
    Rainfall/Runoff ........ YES
    RDII ................... NO
    Snowmelt ............... NO
    Groundwater ............ NO
    Flow Routing ........... YES
    Ponding Allowed ........ NO
    Water Quality .......... NO
  Infiltration Method ...... HORTON
  Flow Routing Method ...... DYNWAVE
  Surcharge Method ......... EXTRAN
  Starting Date ............ 08/28/2015 08:00:00
  Ending Date .............. 08/28/2015 15:50:00
  Antecedent Dry Days ...... 8.0
  Report Time Step ......... 00:01:00
  Wet Time Step ............ 00:01:00
  Dry Time Step ............ 00:01:00
  Routing Time Step ........ 5.00 sec
  Variable Time Step ....... YES
  Maximum Trials ........... 8
  Number of Threads ........ 4
  Head Tolerance ........... 0.001500 m
  
  
  **************************        Volume         Depth
  Runoff Quantity Continuity     hectare-m            mm
  **************************     ---------       -------
  Total Precipitation ......         4.854        10.627
  Evaporation Loss .........         0.000         0.000
  Infiltration Loss ........         1.246         2.727
  Surface Runoff ...........         2.607         5.707
  Final Storage ............         1.002         2.194
  Continuity Error (%) .....        -0.015
  
  
  **************************        Volume        Volume
  Flow Routing Continuity        hectare-m      10^6 ltr
  **************************     ---------     ---------
  Dry Weather Inflow .......         0.616         6.165
  Wet Weather Inflow .......         2.606        26.059
  Groundwater Inflow .......         0.000         0.000
  RDII Inflow ..............         0.000         0.000
  External Inflow ..........         0.102         1.024
  External Outflow .........         0.837         8.371
  Flooding Loss ............         1.944        19.439
  Evaporation Loss .........         0.000         0.000
  Exfiltration Loss ........         0.000         0.000
  Initial Stored Volume ....         0.076         0.761
  Final Stored Volume ......         0.625         6.252
  Continuity Error (%) .....        -0.160
  
  
  *************************
  Highest Continuity Errors
  *************************
  Node HS02004842 (17.68%)
  Node YS02001884 (12.35%)
  Node YSB1171 (3.62%)
  Node HS02004817 (3.28%)
  Node YS02001774 (3.10%)
  
  
  ***************************
  Time-Step Critical Elements
  ***************************
  Link WS02006252WS02006251 (46.80%)
  Link 3 (33.56%)
  Link WS02006280WS02006229 (6.31%)
  Link YS02006556YS02006558 (4.18%)
  Link WS02006238WS02006235 (2.72%)
  
  
  ********************************
  Highest Flow Instability Indexes
  ********************************
  Link WS02006113WS02006111 (47)
  Link YS02163601YS02164001 (24)
  Link YS02001629YS02163301 (23)
  Link YS02163301YS02001633 (23)
  Link YS02164001YS02001641 (21)
  
  
  *************************
  Routing Time Step Summary
  *************************
  Minimum Time Step           :     0.35 sec
  Average Time Step           :     1.13 sec
  Maximum Time Step           :     5.00 sec
  Percent in Steady State     :     0.00
  Average Iterations per Step :     3.79
  Percent Not Converging      :    17.45
  
  
  ***************************
  Subcatchment Runoff Summary
  ***************************
  
  ------------------------------------------------------------------------------------------------------------------------------
                            Total      Total      Total      Total     Imperv       Perv      Total       Total     Peak  Runoff
                           Precip      Runon       Evap      Infil     Runoff     Runoff     Runoff      Runoff   Runoff   Coeff
  Subcatchment                 mm         mm         mm         mm         mm         mm         mm    10^6 ltr      LPS
  ------------------------------------------------------------------------------------------------------------------------------
  sub0                      10.63       0.00       0.00       0.74       8.62       0.00       8.62        0.01     1.33   0.811
  sub1                      10.63       0.00       0.00       1.17       8.20       0.00       8.20        0.05     9.09   0.772
  sub2                      10.63       0.00       0.00       3.93       5.79       0.00       5.79        0.05     8.42   0.544
  sub3                      10.63       0.00       0.00       3.93       5.75       0.00       5.75        0.13    19.27   0.541
  sub4                      10.63       0.00       0.00       1.17       8.05       0.00       8.05        0.17    23.93   0.757
  sub5                      10.63       0.00       0.00       0.74       8.57       0.00       8.57        0.10    16.17   0.806
  sub7                      10.63       0.00       0.00       0.96       8.41       0.00       8.41        0.03     5.13   0.792
  sub8                      10.63       0.00       0.00       0.96       8.41       0.00       8.41        0.05     9.46   0.791
  sub9                      10.63       0.00       0.00       0.96       8.40       0.00       8.40        0.04     7.08   0.791
  sub10                     10.63       0.00       0.00       0.85       8.48       0.00       8.48        0.09    15.87   0.798
  sub11                     10.63       0.00       0.00       0.85       8.50       0.00       8.50        0.10    17.56   0.800
  sub12                     10.63       0.00       0.00       1.38       8.06       0.00       8.06        0.07    13.15   0.758
  sub14                     10.63       0.00       0.00       0.96       8.40       0.00       8.40        0.08    13.93   0.791
  sub15                     10.63       0.00       0.00       3.19       6.46       0.00       6.46        0.11    19.14   0.608
  sub16                     10.63       0.00       0.00       3.51       6.20       0.00       6.20        0.06    12.01   0.584
  sub17                     10.63       0.00       0.00       3.40       6.29       0.00       6.29        0.05     9.91   0.592
  sub22                     10.63       0.00       0.00       4.57       5.27       0.00       5.27        0.33    59.53   0.496
  sub23                     10.63       0.00       0.00       3.93       5.82       0.00       5.82        0.28    50.05   0.548
  sub60                     10.63       0.00       0.00       1.28       6.54       0.00       6.54        1.98   196.13   0.615
  sub61                     10.63       0.00       0.00       1.81       6.69       0.00       6.69        2.06   224.83   0.630
  sub62                     10.63       0.00       0.00       0.85       7.26       0.00       7.26        2.23   236.97   0.684
  sub63                     10.63       0.00       0.00       3.08       5.87       0.00       5.87        1.78   199.96   0.553
  sub64                     10.63       0.00       0.00       1.59       6.27       0.00       6.27        1.91   187.22   0.590
  sub65                     10.63       0.00       0.00       1.38       6.37       0.00       6.37        1.96   190.91   0.599
  sub66                     10.63       0.00       0.00       3.08       5.39       0.00       5.39        1.65   167.73   0.507
  sub67                     10.63       0.00       0.00       0.85       7.71       0.00       7.71        2.38   272.25   0.726
  sub68                     10.63       0.00       0.00       1.49       7.05       0.00       7.05        2.17   241.26   0.664
  sub69                     10.63       0.00       0.00       1.59       7.35       0.00       7.35        1.72   204.41   0.692
  sub70                     10.63       7.50       0.00       6.16       9.71       0.01       9.71        2.22   229.02   0.536
  sub71                     10.63       0.00       0.00       0.85       7.06       0.00       7.06        1.67   170.86   0.664
  sub72                     10.63       0.00       0.00       0.74       5.52       0.00       5.52        1.12    91.59   0.519
  sub73                     10.63       9.45       0.00       6.83      10.48       0.00      10.49        2.46   215.21   0.522
  sub74                     10.63       0.00       0.00       7.97       2.19       0.00       2.19        0.88   108.49   0.206
  
  
  ******************
  Node Depth Summary
  ******************
  
  ---------------------------------------------------------------------------------
                                 Average  Maximum  Maximum  Time of Max    Reported
                                   Depth    Depth      HGL   Occurrence   Max Depth
  Node                 Type       Meters   Meters   Meters  days hr:min      Meters
  ---------------------------------------------------------------------------------
  WS02001211           JUNCTION     0.45     0.60     5.44     0  06:11        0.60
  WS02001212           JUNCTION     0.21     0.34     5.40     0  02:31        0.34
  WS02001213           JUNCTION     0.44     0.59     5.35     0  02:32        0.59
  WS02003069           JUNCTION     0.29     0.44     5.03     0  02:14        0.44
  WS02003072           JUNCTION     0.36     0.51     4.88     0  02:14        0.51
  WS02003073           JUNCTION     0.20     0.31     4.37     0  02:15        0.31
  WS02003060           JUNCTION     0.26     0.39     5.33     0  02:13        0.39
  WS02003066           JUNCTION     0.19     0.29     5.84     0  02:18        0.29
  WS02003059           JUNCTION     0.52     0.66     5.34     0  02:32        0.66
  WS02003067           JUNCTION     0.49     0.68     6.00     0  02:18        0.68
  WS02004401           JUNCTION     0.56     0.81     6.81     0  02:15        0.81
  WS02004402           JUNCTION     0.60     0.84     6.80     0  02:15        0.84
  WS02004403           JUNCTION     0.62     0.86     6.79     0  02:16        0.86
  WS02004404           JUNCTION     0.69     0.93     6.78     0  02:16        0.93
  WS02004406           JUNCTION     0.71     0.93     6.76     0  02:16        0.93
  WS02004409           JUNCTION     0.38     0.63     6.40     0  02:17        0.63
  WS02004410           JUNCTION     0.40     0.65     6.37     0  02:17        0.65
  WS02004411           JUNCTION     0.42     0.66     6.34     0  02:17        0.66
  WS02004412           JUNCTION     0.44     0.67     6.31     0  02:18        0.67
  WS02004413           JUNCTION     0.60     0.83     6.30     0  02:18        0.83
  WS02004405           JUNCTION     0.69     0.92     6.77     0  02:16        0.92
  WS02006109           JUNCTION     0.64     0.91     7.53     0  02:13        0.91
  WS02006110           JUNCTION     0.65     0.88     7.46     0  02:13        0.88
  WS02006111           JUNCTION     0.17     0.27     6.98     0  02:14        0.27
  WS02006112           JUNCTION     0.72     1.00     6.88     0  02:14        1.00
  WS02006113           JUNCTION     0.27     0.43     7.32     0  02:14        0.43
  WS02006115           JUNCTION     0.45     0.71     6.85     0  02:15        0.71
  WS02006116           JUNCTION     0.53     0.79     6.83     0  02:15        0.79
  WS02006230           JUNCTION     0.56     0.90     7.65     0  02:13        0.90
  WS02006231           JUNCTION     0.35     0.56     7.69     0  05:55        0.56
  WS02006232           JUNCTION     0.47     0.72     7.75     0  05:55        0.72
  WS02006234           JUNCTION     0.37     0.65     7.81     0  05:54        0.65
  WS02006235           JUNCTION     0.39     0.69     7.86     0  05:54        0.69
  WS02006238           JUNCTION     0.42     0.72     7.86     0  05:54        0.72
  WS02006240           JUNCTION     0.31     0.64     7.94     0  05:54        0.64
  WS02006242           JUNCTION     0.37     0.71     7.98     0  05:54        0.71
  WS02006243           JUNCTION     0.25     0.60     8.02     0  05:54        0.59
  WS02006245           JUNCTION     0.24     0.57     8.05     0  05:54        0.57
  WS02006247           JUNCTION     0.26     0.59     8.09     0  05:54        0.59
  WS02006248           JUNCTION     0.22     0.53     8.11     0  05:52        0.53
  WS02006249           JUNCTION     0.26     0.57     8.17     0  03:11        0.57
  WS02006239           JUNCTION     0.37     0.69     7.90     0  05:54        0.69
  WS02006251           JUNCTION     0.24     0.60     8.27     0  03:10        0.60
  WS02006252           JUNCTION     0.21     0.59     8.83     0  04:20        0.59
  WS02006253           JUNCTION     0.27     0.63     8.28     0  03:10        0.63
  WS02006256           JUNCTION     0.82     1.20     8.13     0  05:00        1.20
  WS02004138           JUNCTION     0.06     0.14     7.39     0  00:30        0.14
  WS02004407           JUNCTION     0.17     0.28     6.59     0  02:16        0.28
  WS02006228           JUNCTION     0.62     0.93     7.58     0  02:13        0.93
  WS02006229           JUNCTION     0.59     0.92     7.62     0  02:13        0.92
  WS02006280           JUNCTION     0.07     0.16     8.43     0  01:50        0.16
  WS02006284           JUNCTION     0.36     0.50     8.90     0  01:50        0.50
  WS02006287           JUNCTION     0.09     0.23     9.19     0  01:50        0.23
  WSF200               JUNCTION     0.16     0.28     5.51     0  02:16        0.28
  HS02004901           JUNCTION     0.12     0.24    10.06     0  01:47        0.24
  HS02004881           JUNCTION     0.01     0.03     9.06     0  01:50        0.03
  HS02004876           JUNCTION     0.04     0.11     9.14     0  01:47        0.11
  HS02004870           JUNCTION     0.01     0.05     9.33     0  01:50        0.05
  HS02004862           JUNCTION     0.02     0.05     9.44     0  01:51        0.05
  HS02004856           JUNCTION     0.08     0.11     9.54     0  01:51        0.11
  HS02004852           JUNCTION     0.01     0.03     9.54     0  01:52        0.03
  HS02004848           JUNCTION     0.01     0.03     9.63     0  01:51        0.03
  HS02004842           JUNCTION     0.33     0.36     9.63     0  01:51        0.36
  HS02004837           JUNCTION     0.03     0.05     9.63     0  01:51        0.05
  HS02004830           JUNCTION     0.04     0.07     9.54     0  01:51        0.07
  HS02004824           JUNCTION     0.02     0.05     9.45     0  02:16        0.05
  HS02004817           JUNCTION     0.43     0.54     9.39     0  01:51        0.54
  HS02004807           JUNCTION     0.12     0.22     9.39     0  01:51        0.22
  HS02004802           JUNCTION     0.16     0.25     9.38     0  01:51        0.25
  HS02004799           JUNCTION     0.12     0.28     9.49     0  01:48        0.28
  HS02004792           JUNCTION     0.03     0.11     9.63     0  01:47        0.11
  HS02004788           JUNCTION     0.03     0.08     9.98     0  01:48        0.08
  HS02004785           JUNCTION     0.05     0.14    10.04     0  01:48        0.14
  HS02004777           JUNCTION     0.14     0.26    10.06     0  01:48        0.26
  HS02004770           JUNCTION     0.11     0.23    10.06     0  01:47        0.23
  HS02004480           JUNCTION     0.08     0.21     9.46     0  01:48        0.21
  HS02004479           JUNCTION     0.11     0.25     9.46     0  01:48        0.25
  HS02004478           JUNCTION     0.06     0.14     9.37     0  01:49        0.14
  YS02001745           JUNCTION     0.68     0.88     8.40     0  03:05        0.88
  YS02001748           JUNCTION     1.07     1.33     8.40     0  03:04        1.32
  YS02001751           JUNCTION     1.25     1.87     8.75     0  02:15        1.53
  YS02001754           JUNCTION     1.50     1.86     8.47     0  02:15        1.81
  YS02001762           JUNCTION     1.69     2.03     8.43     0  03:04        2.02
  YS02001765           JUNCTION     1.65     1.98     8.43     0  03:05        1.97
  YS02001767           JUNCTION     1.61     1.93     8.42     0  03:06        1.92
  YS02001770           JUNCTION     1.61     1.91     8.40     0  03:08        1.90
  YS02001774           JUNCTION     1.67     1.97     8.39     0  03:23        1.96
  YS02001779           JUNCTION     1.43     1.68     8.37     0  02:41        1.68
  YS02001882           JUNCTION     0.39     0.84     7.56     0  03:02        0.84
  YS02001884           JUNCTION     0.49     0.94     7.56     0  03:03        0.94
  YS02001759           JUNCTION     1.73     2.07     8.43     0  03:05        2.06
  YS02001887           JUNCTION     0.56     1.02     7.56     0  03:02        1.02
  YS02001890           JUNCTION     0.59     1.05     7.56     0  03:03        1.05
  YS02001898           JUNCTION     0.37     0.81     7.55     0  03:03        0.81
  YS02001901           JUNCTION     0.48     0.94     7.55     0  03:03        0.94
  YS02001904           JUNCTION     0.46     0.91     7.54     0  03:03        0.91
  YS02001907           JUNCTION     0.79     1.26     7.55     0  03:02        1.25
  YS02001910           JUNCTION     0.58     1.04     7.55     0  03:02        1.04
  YS02001915           JUNCTION     0.38     0.83     7.55     0  03:03        0.83
  YS02001918           JUNCTION     0.15     0.48     7.55     0  03:03        0.48
  YS02001619           JUNCTION     1.21     1.48     8.41     0  02:41        1.47
  YS02001629           JUNCTION     1.56     1.85     8.39     0  02:41        1.84
  YS02001641           JUNCTION     1.66     1.93     8.37     0  02:55        1.93
  YS02001644           JUNCTION     1.66     1.92     8.35     0  02:41        1.92
  YS02001652           JUNCTION     1.51     2.09     8.68     0  03:14        1.95
  YS02001655           JUNCTION     1.28     2.11     8.96     0  03:25        1.80
  YS02001920           JUNCTION     0.25     0.55     7.56     0  03:03        0.54
  YS02001923           JUNCTION     0.10     0.29     7.55     0  03:03        0.29
  YS02001926           JUNCTION     0.19     0.26     7.71     0  03:01        0.26
  YS02001929           JUNCTION     0.10     0.14     7.84     0  03:01        0.14
  YS02001658           JUNCTION     1.01     2.15     9.29     0  03:25        1.62
  YS02001661           JUNCTION     0.78     2.36     9.76     0  03:14        1.41
  YS02001664           JUNCTION     0.35     0.57     8.49     0  03:23        0.56
  YS02001622           JUNCTION     1.23     1.49     8.40     0  03:01        1.49
  YS02001633           JUNCTION     1.65     1.94     8.40     0  02:41        1.93
  YS02001649           JUNCTION     1.70     2.05     8.44     0  03:01        2.05
  YS02001757           JUNCTION     1.83     2.17     8.43     0  03:05        2.16
  YS02001895           JUNCTION     0.36     0.80     7.55     0  03:03        0.80
  YS02001625           JUNCTION     1.51     1.78     8.38     0  02:38        1.78
  YS02163301           JUNCTION     1.59     1.88     8.40     0  02:41        1.87
  YS02163601           JUNCTION     1.70     1.99     8.39     0  02:41        1.98
  YS02164001           JUNCTION     1.64     1.92     8.38     0  02:41        1.91
  YS02001647           JUNCTION     1.50     1.80     8.41     0  03:23        1.78
  YSB1154              JUNCTION     0.25     0.40     9.46     0  01:48        0.40
  YSB6556              JUNCTION     0.15     0.29     9.46     0  01:49        0.29
  YSB1174              JUNCTION     0.20     0.35     9.46     0  01:49        0.35
  YSB1171              JUNCTION     0.40     0.55     9.46     0  01:48        0.55
  YS02006553           JUNCTION     0.79     1.25     7.54     0  03:02        1.25
  YS02006561           JUNCTION     0.21     0.56     7.22     0  03:03        0.56
  YS02006556           JUNCTION     0.76     1.21     7.52     0  03:02        1.21
  YS02006558           JUNCTION     0.80     1.25     7.52     0  03:02        1.24
  YS02001783           JUNCTION     0.44     1.13     7.27     0  02:06        1.07
  YS02001784           JUNCTION     0.48     1.20     7.26     0  02:06        1.07
  YS02001786           JUNCTION     0.45     1.18     7.21     0  02:06        0.98
  YS02001788           JUNCTION     0.41     1.23     7.20     0  02:06        0.93
  YS02001790           JUNCTION     0.57     1.96     7.60     0  02:04        1.15
  YS02001791           JUNCTION     0.61     1.71     7.18     0  02:04        1.22
  YS02001793           JUNCTION     0.93     2.79     7.62     0  02:02        1.79
  WS02004139           JUNCTION     0.38     0.54     5.45     0  06:10        0.54
  WSC                  OUTFALL      0.20     0.31     0.98     0  02:16        0.31
  3                    OUTFALL      0.04     0.19     6.19     0  05:00        0.19
  4                    OUTFALL      0.00     0.07     7.07     0  03:11        0.07
  5                    OUTFALL      0.00     0.00     5.00     0  00:00        0.00
  JK-storage           STORAGE      4.12     5.80     6.60     0  02:05        5.80
  CC-storage           STORAGE      1.08     1.39     8.39     0  03:03        1.39
  XR-storage           STORAGE      7.68     7.72     5.72     0  00:45        7.72
  
  
  *******************
  Node Inflow Summary
  *******************
  
  -------------------------------------------------------------------------------------------------
                                  Maximum  Maximum                  Lateral       Total        Flow
                                  Lateral    Total  Time of Max      Inflow      Inflow     Balance
                                   Inflow   Inflow   Occurrence      Volume      Volume       Error
  Node                 Type           LPS      LPS  days hr:min    10^6 ltr    10^6 ltr     Percent
  -------------------------------------------------------------------------------------------------
  WS02001211           JUNCTION      7.35   189.30     0  06:10       0.207         1.7       0.769
  WS02001212           JUNCTION      0.00   183.79     0  06:11           0        1.69       0.283
  WS02001213           JUNCTION      0.00   183.31     0  06:11           0        1.69       0.635
  WS02003069           JUNCTION      0.32   584.07     0  02:13     0.00902        7.17       0.157
  WS02003072           JUNCTION      0.00   583.89     0  02:14           0        7.16       0.225
  WS02003073           JUNCTION      1.82   585.56     0  02:15      0.0514        7.19       0.222
  WS02003060           JUNCTION     16.53   583.79     0  02:13       0.466         7.2       0.149
  WS02003066           JUNCTION      0.00   486.56     0  02:18           0        5.07       0.057
  WS02003059           JUNCTION      0.00   185.20     0  06:12           0         1.7       1.353
  WS02003067           JUNCTION      0.00   486.54     0  02:18           0        5.08       0.131
  WS02004401           JUNCTION      0.00   489.13     0  02:15           0        5.24       0.309
  WS02004402           JUNCTION      0.00   488.80     0  02:15           0        5.23       0.299
  WS02004403           JUNCTION      0.00   488.81     0  02:15           0        5.21       0.280
  WS02004404           JUNCTION      0.16   488.44     0  02:16     0.00457         5.2       0.219
  WS02004406           JUNCTION      0.00   488.80     0  02:16           0        5.18       0.537
  WS02004409           JUNCTION      0.00   488.26     0  02:16           0        5.14       0.185
  WS02004410           JUNCTION      0.00   487.73     0  02:17           0        5.13       0.221
  WS02004411           JUNCTION      0.00   487.22     0  02:17           0        5.12       0.237
  WS02004412           JUNCTION      0.00   486.97     0  02:17           0        5.11       0.272
  WS02004413           JUNCTION      0.00   486.65     0  02:18           0         5.1       0.428
  WS02004405           JUNCTION      0.04   488.52     0  02:16     0.00107        5.19       0.329
  WS02006109           JUNCTION      1.23   481.88     0  02:13      0.0347        5.28       0.166
  WS02006110           JUNCTION      0.00   481.87     0  02:13           0        5.27       0.311
  WS02006111           JUNCTION      0.00   497.25     0  02:13           0        5.24       0.058
  WS02006112           JUNCTION      9.91   493.57     0  02:14       0.054         5.3       0.456
  WS02006113           JUNCTION      0.00   482.19     0  02:14           0        5.25       0.117
  WS02006115           JUNCTION      0.00   490.38     0  02:12           0        5.27       0.270
  WS02006116           JUNCTION      0.00   489.74     0  02:15           0        5.26       0.235
  WS02006230           JUNCTION     10.28   384.81     0  05:54        0.29        3.62       0.236
  WS02006231           JUNCTION      0.00   378.23     0  05:53           0        3.34       0.206
  WS02006232           JUNCTION      0.00   379.16     0  05:53           0        3.35       0.369
  WS02006234           JUNCTION      0.00   381.28     0  05:53           0        3.35       0.054
  WS02006235           JUNCTION      0.00   383.04     0  05:52           0        3.42       0.324
  WS02006238           JUNCTION      0.00   323.81     0  03:13           0        2.16      -0.164
  WS02006240           JUNCTION      0.00   336.65     0  03:12           0        2.12       0.305
  WS02006242           JUNCTION      0.00   344.20     0  03:11           0         2.1       0.385
  WS02006243           JUNCTION      0.00   352.09     0  03:11           0        2.07      -0.617
  WS02006245           JUNCTION      0.00   356.56     0  03:11           0        2.08       0.501
  WS02006247           JUNCTION      0.00   360.59     0  03:10           0        2.08       0.110
  WS02006248           JUNCTION      0.00   364.32     0  03:10           0        2.08      -0.244
  WS02006249           JUNCTION      0.00   413.14     0  03:10           0        2.11       0.370
  WS02006239           JUNCTION      0.00   328.19     0  03:12           0        2.13      -0.188
  WS02006251           JUNCTION      0.08   415.31     0  03:10     0.00217        2.14      -0.043
  WS02006252           JUNCTION      0.00   399.98     0  04:20           0         1.8       0.005
  WS02006253           JUNCTION      1.33    51.15     0  01:50     0.00698       0.336       0.018
  WS02006256           JUNCTION      0.00   599.99     0  05:00           0        2.47       0.113
  WS02004138           JUNCTION      0.00   189.99     0  05:50           0        1.48      -0.085
  WS02004407           JUNCTION      0.00   488.39     0  02:16           0        5.15       0.086
  WS02006228           JUNCTION      0.00   480.66     0  02:13           0        5.25       0.199
  WS02006229           JUNCTION      0.00   480.77     0  02:13           0        5.27       0.260
  WS02006280           JUNCTION      0.00   250.77     0  01:50           0        1.65       0.004
  WS02006284           JUNCTION      0.10   250.79     0  01:50      0.0027        1.65       0.062
  WS02006287           JUNCTION      0.00   250.70     0  01:50           0        1.65       0.044
  WSF200               JUNCTION      0.00   486.55     0  02:18           0        5.07       0.045
  HS02004901           JUNCTION     12.01    12.01     0  01:45      0.0649      0.0651       2.778
  HS02004881           JUNCTION      5.13    49.92     0  01:49      0.0283       0.303       0.069
  HS02004876           JUNCTION      9.09    44.88     0  01:50      0.0545       0.275       0.197
  HS02004870           JUNCTION      9.46    35.90     0  01:50      0.0537       0.221       0.049
  HS02004862           JUNCTION      8.62    26.77     0  01:51      0.0595       0.167       0.102
  HS02004856           JUNCTION      7.08    18.19     0  01:50      0.0404       0.109       1.337
  HS02004852           JUNCTION      0.00    11.37     0  01:51           0      0.0688       0.079
  HS02004848           JUNCTION     19.27    19.27     0  02:15       0.129       0.129       0.035
  HS02004842           JUNCTION      0.00     7.96     0  02:16           0      0.0736      21.477
  HS02004837           JUNCTION     22.22    28.76     0  01:50       0.273       0.333       0.236
  HS02004830           JUNCTION      0.15    28.90     0  01:51     0.00423       0.324       0.383
  HS02004824           JUNCTION     23.98    52.78     0  02:16       0.169       0.492       0.110
  HS02004817           JUNCTION      0.60    53.38     0  02:16      0.0169       0.508       3.393
  HS02004807           JUNCTION     17.56    68.44     0  02:16      0.0987        0.59       0.739
  HS02004802           JUNCTION      0.00    68.45     0  02:16           0       0.587       0.676
  HS02004799           JUNCTION     13.93   155.61     0  01:47      0.0799       0.915       0.289
  HS02004792           JUNCTION     59.81   141.74     0  01:47       0.341       0.835       0.048
  HS02004788           JUNCTION     20.81    82.40     0  01:48       0.158       0.496       0.077
  HS02004785           JUNCTION      0.15    61.69     0  01:47     0.00423       0.339       0.145
  HS02004777           JUNCTION      0.03    61.69     0  01:46    0.000846        0.34       1.552
  HS02004770           JUNCTION     50.05    61.90     0  01:46       0.278       0.341       0.915
  HS02004480           JUNCTION      0.00   184.53     0  01:48           0        1.08       0.104
  HS02004479           JUNCTION      0.00    29.02     0  01:50           0       0.176       0.418
  HS02004478           JUNCTION      0.00   250.67     0  01:49           0        1.65       0.021
  YS02001745           JUNCTION    196.14   238.44     0  02:30        1.98        1.98       0.573
  YS02001748           JUNCTION      0.04   411.94     0  02:14     0.00127        1.98       1.151
  YS02001751           JUNCTION      0.01   429.70     0  02:13     0.00031        1.96       1.161
  YS02001754           JUNCTION      0.26   206.54     0  02:57     0.00733        1.93       1.282
  YS02001762           JUNCTION      0.00   241.52     0  02:31           0        1.52       1.406
  YS02001765           JUNCTION      0.00   236.31     0  02:31           0        1.52       1.619
  YS02001767           JUNCTION      0.54   232.73     0  02:34      0.0151        1.54       2.356
  YS02001770           JUNCTION    237.12   300.75     0  03:07        2.24         2.3       1.397
  YS02001774           JUNCTION      0.00   301.29     0  03:07           0       0.808       3.198
  YS02001779           JUNCTION      0.01   301.34     0  03:07    0.000141       0.774       2.060
  YS02001882           JUNCTION      0.00     7.30     0  02:43           0      0.0135      18.207
  YS02001884           JUNCTION      0.00    14.19     0  01:36           0      0.0462      14.088
  YS02001759           JUNCTION    224.87   450.28     0  02:31        2.06        3.49       0.658
  YS02001887           JUNCTION    272.70   272.70     0  02:58        2.39        2.42       0.333
  YS02001890           JUNCTION      0.00   268.06     0  02:59           0        2.38       0.370
  YS02001898           JUNCTION      0.00   264.55     0  03:01           0        2.36       0.116
  YS02001901           JUNCTION      0.00   262.59     0  03:01           0        2.36       0.277
  YS02001904           JUNCTION      0.00   261.82     0  03:02           0        2.36       0.252
  YS02001907           JUNCTION      0.00   526.65     0  03:08           0        5.21       0.452
  YS02001910           JUNCTION      0.00   267.55     0  03:08           0        2.86       0.394
  YS02001915           JUNCTION    170.88   264.19     0  03:05        1.67        2.86       0.195
  YS02001918           JUNCTION      0.00   108.38     0  03:16           0         1.2       0.142
  YS02001619           JUNCTION    167.73   167.73     0  03:01        1.65        1.65       0.748
  YS02001629           JUNCTION      0.00   163.20     0  03:03           0        1.57       1.872
  YS02001641           JUNCTION      0.00   352.07     0  03:00           0        3.43       0.618
  YS02001644           JUNCTION    187.26   991.13     0  03:05        1.91        8.14       0.336
  YS02001652           JUNCTION      0.00   244.38     0  02:56           0        1.73       1.358
  YS02001655           JUNCTION      0.15   345.15     0  02:16     0.00434        1.76       1.439
  YS02001920           JUNCTION      2.87   105.54     0  03:03      0.0809         1.2       0.227
  YS02001923           JUNCTION      0.04    91.49     0  03:01     0.00106        1.12       0.043
  YS02001926           JUNCTION      0.05    91.60     0  03:01     0.00147        1.12       0.282
  YS02001929           JUNCTION     91.59    91.59     0  03:01        1.12        1.12       0.041
  YS02001658           JUNCTION      0.00   527.34     0  02:27           0        1.79       1.125
  YS02001661           JUNCTION      0.00   537.66     0  02:45           0        2.07      -0.132
  YS02001664           JUNCTION    199.96   337.08     0  02:45        1.78        2.07       0.324
  YS02001622           JUNCTION      0.00   168.52     0  02:59           0        1.64       1.971
  YS02001633           JUNCTION    191.11   351.52     0  03:00        1.96        3.49       0.929
  YS02001649           JUNCTION      0.00   682.13     0  02:41           0        5.24       0.707
  YS02001757           JUNCTION      0.00  1287.48     0  02:42           0        7.94       1.175
  YS02001895           JUNCTION      0.00   266.51     0  03:01           0        2.37       0.201
  YS02001625           JUNCTION      0.00   167.96     0  03:00           0        1.61       2.451
  YS02163301           JUNCTION      0.00   177.70     0  02:29           0        1.55       1.577
  YS02163601           JUNCTION      0.11   351.61     0  03:00      0.0031        3.45       0.876
  YS02164001           JUNCTION      0.00   351.75     0  03:00           0        3.43       0.589
  YS02001647           JUNCTION      0.00   511.76     0  02:40           0        4.47       0.635
  YSB1154              JUNCTION     16.17    16.17     0  01:48       0.097      0.0979       1.500
  YSB6556              JUNCTION      0.00    16.24     0  01:49           0      0.0986       1.284
  YSB1174              JUNCTION     13.15    13.15     0  01:45      0.0704      0.0709       1.844
  YSB1171              JUNCTION      0.00    29.32     0  01:48           0       0.175       3.756
  YS02006553           JUNCTION      0.00   526.35     0  03:08           0         5.2       0.289
  YS02006561           JUNCTION      0.00   753.20     0  03:02           0        7.33       0.007
  YS02006556           JUNCTION      0.00   527.09     0  03:09           0         5.2       0.212
  YS02006558           JUNCTION    242.14   754.17     0  03:02        2.19        7.37       0.070
  YS02001783           JUNCTION      0.00   753.14     0  03:03           0        7.33       0.030
  YS02001784           JUNCTION      1.06   754.42     0  03:03      0.0299        7.36       0.043
  YS02001786           JUNCTION      0.06   754.32     0  03:03     0.00159        7.36       0.044
  YS02001788           JUNCTION      0.07   754.42     0  03:03       0.002        7.36       0.026
  YS02001790           JUNCTION      0.15   754.54     0  03:03     0.00437        7.36       0.025
  YS02001791           JUNCTION      0.00   754.66     0  03:03           0        7.36       0.013
  YS02001793           JUNCTION      0.00   754.73     0  03:03           0        7.36      -0.017
  WS02004139           JUNCTION      0.32   189.46     0  00:30     0.00905         1.5       0.658
  WSC                  OUTFALL       0.00   585.29     0  02:16           0        7.17       0.000
  3                    OUTFALL       0.00   465.53     0  05:00           0        1.17       0.000
  4                    OUTFALL       0.00    48.15     0  03:11           0      0.0282       0.000
  5                    OUTFALL       0.00     0.00     0  00:00           0           0       0.000 ltr
  JK-storage           STORAGE       0.00   798.31     0  02:02           0        7.51      -0.329
  CC-storage           STORAGE       0.00  1289.46     0  02:42           0        5.92       1.111
  XR-storage           STORAGE     519.52   519.52     0  03:01        8.98        9.58       0.003
  
  
  **********************
  Node Surcharge Summary
  **********************
  
  Surcharging occurs when water rises above the top of the highest conduit.
  ---------------------------------------------------------------------
                                               Max. Height   Min. Depth
                                   Hours       Above Crown    Below Rim
  Node                 Type      Surcharged         Meters       Meters
  ---------------------------------------------------------------------
  WS02006109           JUNCTION        0.69          0.087        1.733
  WS02006232           JUNCTION        0.09          0.016        1.464
  WS02006252           JUNCTION        0.51          0.192        0.908
  WS02006228           JUNCTION        0.67          0.101        2.099
  YS02001748           JUNCTION        5.19          0.245        0.945
  YS02001751           JUNCTION        5.47          0.871        0.329
  YS02001754           JUNCTION        5.71          0.812        0.338
  YS02001762           JUNCTION        5.94          1.029        0.121
  YS02001765           JUNCTION        5.92          0.978        0.122
  YS02001767           JUNCTION        5.90          0.929        0.101
  YS02001770           JUNCTION        5.88          0.878        0.042
  YS02001774           JUNCTION        5.93          0.971        0.079
  YS02001779           JUNCTION        5.68          0.680        0.000
  YS02001759           JUNCTION        5.97          1.066        0.144
  YS02001890           JUNCTION        0.01          0.001        0.759
  YS02001907           JUNCTION        1.24          0.248        0.702
  YS02001910           JUNCTION        0.21          0.039        1.061
  YS02001619           JUNCTION        5.44          0.476        0.134
  YS02001629           JUNCTION        5.46          0.465        0.005
  YS02001641           JUNCTION        5.93          0.934        0.166
  YS02001644           JUNCTION        5.93          0.920        0.000
  YS02001652           JUNCTION        5.77          1.059        0.071
  YS02001655           JUNCTION        5.52          1.108        0.092
  YS02001658           JUNCTION        5.23          1.152        0.148
  YS02001661           JUNCTION        0.13          1.290        0.100
  YS02001622           JUNCTION        5.50          0.495        0.125
  YS02001633           JUNCTION        5.91          0.923        0.137
  YS02001649           JUNCTION        5.95          1.050        0.000
  YS02001757           JUNCTION        6.03          1.170        0.040
  YS02001625           JUNCTION        5.84          0.780        0.000
  YS02163301           JUNCTION        5.89          0.882        0.148
  YS02163601           JUNCTION        5.95          0.989        0.091
  YS02164001           JUNCTION        5.92          0.920        0.180
  YS02001647           JUNCTION        5.81          0.800        0.100
  YS02006553           JUNCTION        1.32          0.255        0.935
  YS02006556           JUNCTION        0.67          0.171        1.179
  YS02006558           JUNCTION        0.60          0.149        1.251
  YS02001783           JUNCTION        1.22          0.330        1.270
  YS02001784           JUNCTION        1.31          0.397        1.093
  YS02001786           JUNCTION        1.23          0.381        1.049
  YS02001788           JUNCTION        1.19          0.428        1.052
  YS02001790           JUNCTION        2.88          1.157        0.000
  YS02001791           JUNCTION        3.06          0.907        1.013
  YS02001793           JUNCTION        3.57          1.789        0.811
  
  
  *********************
  Node Flooding Summary
  *********************
  
  Flooding refers to all water that overflows a node, whether it ponds or not.
  --------------------------------------------------------------------------
                                                             Total   Maximum
                                 Maximum   Time of Max       Flood    Ponded
                        Hours       Rate    Occurrence      Volume     Depth
  Node                 Flooded       LPS   days hr:min    10^6 ltr    Meters
  --------------------------------------------------------------------------
  YS02001779              2.38    301.28      0  03:07       0.751     0.000
  YS02001644              4.87    991.06      0  03:05       6.460     0.000
  YS02001649              0.02     32.87      0  03:19       0.001     0.000
  YS02001625              0.31     17.64      0  02:41       0.004     0.000
  YS02001790              0.01    257.23      0  02:04       0.000     0.000
  JK-storage              2.81    754.55      0  03:03       5.053     0.000
  XR-storage              7.07    503.23      0  02:50       7.172     0.000
  
  
  **********************
  Storage Volume Summary
  **********************
  
  --------------------------------------------------------------------------------------------------
                         Average     Avg  Evap Exfil       Maximum     Max    Time of Max    Maximum
                          Volume    Pcnt  Pcnt  Pcnt        Volume    Pcnt     Occurrence    Outflow
  Storage Unit           1000 m3    Full  Loss  Loss       1000 m3    Full    days hr:min        LPS
  --------------------------------------------------------------------------------------------------
  JK-storage               0.207      71     0     0         0.291     100       0  02:05     599.99
  CC-storage               3.005      19     0     0         3.876      25       0  03:03     399.98
  XR-storage               0.922      99     0     0         0.926     100       0  00:45     189.99
  
  
  ***********************
  Outfall Loading Summary
  ***********************
  
  -----------------------------------------------------------
                         Flow       Avg       Max       Total
                         Freq      Flow      Flow      Volume
  Outfall Node           Pcnt       LPS       LPS    10^6 ltr
  -----------------------------------------------------------
  WSC                  100.00    275.31    585.29       7.175
  3                     44.21    155.82    465.53       1.169
  4                      8.57     17.67     48.15       0.028
  5                      0.00      0.00      0.00       0.000
  -----------------------------------------------------------
  System                38.19    448.80    677.61       8.371
  
  
  ********************
  Link Flow Summary
  ********************
  
  -----------------------------------------------------------------------------
                                 Maximum  Time of Max   Maximum    Max/    Max/
                                  |Flow|   Occurrence   |Veloc|    Full    Full
  Link                 Type          LPS  days hr:min     m/sec    Flow   Depth
  -----------------------------------------------------------------------------
  WS02003066WSF200     CONDUIT    486.55     0  02:18      2.76    0.08    0.21
  WS02006287WS02006284 CONDUIT    250.69     0  01:50      1.73    0.12    0.24
  WS02006284WS02006280 CONDUIT    250.77     0  01:50      1.97    0.11    0.22
  WS02006280WS02006229 CONDUIT    250.77     0  01:50      3.17    0.05    0.16
  WS02006229WS02006228 CONDUIT    480.66     0  02:13      0.96    1.59    1.00
  WS02006256WS02006235 CONDUIT    150.00     0  00:25      2.14    1.59    1.00
  WS02006253WS02006251 CONDUIT     55.88     0  02:14      0.53    0.17    0.87
  WS02006252WS02006251 CONDUIT    400.08     0  05:50      3.18    1.47    1.00
  WS02006251WS02006249 CONDUIT    413.14     0  03:10      1.20    1.19    0.84
  WS02006249WS02006248 CONDUIT    364.32     0  03:10      1.18    2.00    0.77
  WS02006248WS02006247 CONDUIT    360.59     0  03:10      1.15    0.78    0.79
  WS02006247WS02006245 CONDUIT    356.56     0  03:11      1.13    2.83    0.82
  WS02006245WS02006243 CONDUIT    352.09     0  03:11      1.18    1.04    0.82
  WS02006243WS02006242 CONDUIT    344.20     0  03:11      1.07    0.74    0.91
  WS02006242WS02006240 CONDUIT    336.65     0  03:12      1.00    1.34    0.95
  WS02006240WS02006239 CONDUIT    328.19     0  03:12      1.08    1.03    0.93
  WS02006239WS02006238 CONDUIT    323.81     0  03:13      0.97    1.04    1.00
  WS02006238WS02006235 CONDUIT    322.52     0  03:13      0.96    0.72    0.99
  WS02006235WS02006234 CONDUIT    381.28     0  05:53      1.09    4.02    0.94
  WS02006234WS02006232 CONDUIT    379.16     0  05:53      1.00    0.77    0.97
  WS02006232WS02006231 CONDUIT    378.23     0  05:53      1.05    0.79    0.90
  WS02006231WS02006230 CONDUIT    374.53     0  05:54      1.36    5.68    0.77
  WS02006230WS02006229 CONDUIT    383.18     0  05:55      1.00    8.53    1.00
  WS02006228WS02006109 CONDUIT    480.65     0  02:13      0.96    2.10    1.00
  WS02006116WS02004401 CONDUIT    489.13     0  02:15      0.77    0.67    0.80
  WS02006115WS02006116 CONDUIT    489.74     0  02:15      0.93    0.63    0.72
  WS02006113WS02006111 CONDUIT    497.25     0  02:13      2.37    0.60    0.44
  WS02006112WS02006115 CONDUIT    490.38     0  02:12      0.69    0.29    0.85
  WS02006111WS02006112 CONDUIT    485.33     0  02:14      1.37    0.23    0.66
  WS02006110WS02006113 CONDUIT    482.19     0  02:14      1.17    0.44    0.77
  WS02006109WS02006110 CONDUIT    481.87     0  02:13      0.96    0.93    0.98
  WS02004411WS02004412 CONDUIT    486.97     0  02:17      0.88    0.69    0.66
  WS02004401WS02004402 CONDUIT    488.80     0  02:15      0.82    0.59    0.83
  WS02004413WS02003067 CONDUIT    486.54     0  02:18      1.05    0.21    0.57
  WS02004412WS02004413 CONDUIT    486.65     0  02:18      0.77    0.33    0.75
  WS02004410WS02004411 CONDUIT    487.22     0  02:17      0.90    0.67    0.65
  WS02004409WS02004410 CONDUIT    487.73     0  02:17      0.92    0.63    0.64
  WS02004407WS02004409 CONDUIT    488.26     0  02:16      1.40    0.17    0.46
  WS02004406WS02004407 CONDUIT    488.39     0  02:16      0.98    0.22    0.61
  WS02004405WS02004406 CONDUIT    488.80     0  02:16      0.74    0.96    0.93
  WS02004404WS02004405 CONDUIT    488.48     0  02:16      0.96    4.79    0.93
  WS02004403WS02004404 CONDUIT    488.28     0  02:16      0.85    0.35    0.89
  WS02004402WS02004403 CONDUIT    488.81     0  02:15      0.86    0.70    0.85
  WS02004139WS02001211 CONDUIT    181.95     0  06:10      0.40    0.23    0.44
  WS02004138WS02004139 CONDUIT    189.14     0  00:30      1.02    0.04    0.31
  WS02003067WS02003066 CONDUIT    486.56     0  02:18      1.14    0.16    0.40
  WS02001213WS02003059 CONDUIT    185.20     0  06:12      0.45    0.31    0.61
  WS02001212WS02001213 CONDUIT    183.31     0  06:11      0.99    0.28    0.31
  WS02001211WS02001212 CONDUIT    183.79     0  06:11      0.51    0.14    0.47
  WS02003072WS02003073 CONDUIT    583.74     0  02:15      1.46    1.26    0.38
  WS02003069WS02003072 CONDUIT    583.89     0  02:14      1.39    0.28    0.40
  WS02003060WS02003069 CONDUIT    583.75     0  02:13      1.66    0.23    0.35
  WS02003059WS02003060 CONDUIT    187.76     0  06:13      0.63    0.12    0.52
  HS02004901HS02004770 CONDUIT     11.86     0  01:47      0.05    0.04    0.34
  HS02004876HS02004881 CONDUIT     44.96     0  01:50      0.68    0.48    0.09
  HS02004870HS02004876 CONDUIT     35.89     0  01:50      0.47    0.02    0.11
  HS02004842HS02004848 CONDUIT      7.96     0  02:16      0.04    0.00    0.28
  HS02004837HS02004842 CONDUIT      8.06     0  02:20      0.42    0.00    0.30
  HS02004830HS02004837 CONDUIT     28.75     0  01:51      0.48    0.03    0.09
  HS02004824HS02004830 CONDUIT     28.90     0  01:52      0.51    0.04    0.08
  HS02004817HS02004824 CONDUIT     52.78     0  02:16      0.18    0.02    0.42
  HS02004770HS02004777 CONDUIT     61.66     0  01:46      0.25    0.11    0.35
  HS02004799HS02004480 CONDUIT    155.54     0  01:47      0.65    0.20    0.34
  HS02004792HS02004799 CONDUIT    141.71     0  01:47      0.74    0.09    0.27
  HS02004788HS02004792 CONDUIT     82.36     0  01:48      0.88    0.05    0.13
  HS02004785HS02004788 CONDUIT     61.65     0  01:48      0.55    0.46    0.16
  HS02004777HS02004785 CONDUIT     61.54     0  01:47      0.30    0.08    0.29
  HS02004480HS02004478 CONDUIT    184.33     0  01:49      1.04    0.78    0.25
  HS02004479HS02004480 CONDUIT     29.24     0  01:51      0.28    0.03    0.33
  HS02004862HS02004870 CONDUIT     26.75     0  01:51      0.52    0.03    0.07
  HS02004848HS02004852 CONDUIT     11.37     0  01:51      0.35    0.01    0.05
  HS02004856HS02004862 CONDUIT     18.17     0  01:51      0.38    0.02    0.07
  HS02004852HS02004856 CONDUIT     11.35     0  01:52      0.16    0.01    0.10
  HS02004802HS02004478 CONDUIT     68.53     0  02:17      0.36    0.06    0.28
  HS02004478WS02006287 CONDUIT    250.70     0  01:50      1.43    0.07    0.19
  HS02004817HS02004807 CONDUIT     53.46     0  02:17      0.14    0.03    0.54
  HS02004807HS02004802 CONDUIT     68.45     0  02:16      0.30    0.13    0.33
  YS02001759YS02001757 CONDUIT    454.32     0  02:31      0.58    0.32    1.00
  YS02001762YS02001759 CONDUIT    246.70     0  02:31      0.31    0.28    1.00
  YS02001765YS02001762 CONDUIT    241.52     0  02:31      0.31    0.23    1.00
  YS02001770YS02001767 CONDUIT    232.20     0  02:34      0.38    0.92    1.00
  YS02001774YS02001770 CONDUIT    301.29     0  03:07      0.38    0.19    1.00
  YS02001779YS02001774 CONDUIT    301.34     0  03:07      0.38    0.15    1.00
  YS02001649YS02001757 CONDUIT    683.94     0  02:41      0.87    0.42    1.00
  YS02001767YS02001765 CONDUIT    236.31     0  02:31      0.35    0.30    1.00
  YS02006561YS02001783 CONDUIT    753.14     0  03:03      2.01    0.39    0.85
  YS02001783YS02001784 CONDUIT    753.36     0  03:03      1.50    1.04    1.00
  YS02001784YS02001785 CONDUIT    754.26     0  03:03      1.54    1.76    1.00
  YS02001788YS02001790 CONDUIT    754.39     0  03:03      2.08    0.56    1.00
  YS02001790YS02001791 CONDUIT    754.66     0  03:03      2.46    0.82    1.00
  YS02001791YS02001793 CONDUIT    754.73     0  03:03      4.92    0.32    1.00
  YS02001910YS02001907 CONDUIT    269.70     0  03:10      0.49    0.15    1.00
  YS02001786YS02001788 CONDUIT    754.35     0  03:03      2.01    1.45    1.00
  YS02001915YS02001910 CONDUIT    267.55     0  03:08      0.56    0.13    0.92
  YS02001918YS02001915 CONDUIT    110.98     0  03:17      0.44    0.06    0.66
  YS02001923YS02001920 CONDUIT    102.67     0  03:03      0.64    0.05    0.42
  YS02001926YS02001923 CONDUIT     91.45     0  03:01      0.74    0.13    0.21
  YS02001929YS02001926 CONDUIT     91.55     0  03:01      0.81    0.04    0.20
  YS02001920YS02001918 CONDUIT    108.38     0  03:16      0.63    0.10    0.51
  YS02001629YS02163301 CONDUIT    177.70     0  02:29      0.23    0.22    1.00
  YS02001619YS02001622 CONDUIT    168.52     0  02:59      0.65    0.25    1.00
  YS02001622YS02001625 CONDUIT    167.96     0  03:00      0.32    0.09    1.00
  YS02001625YS02001629 CONDUIT    163.20     0  03:03      0.26    0.08    1.00
  YS02163301YS02001633 CONDUIT    179.76     0  02:29      0.23    0.17    1.00
  YS02163601YS02164001 CONDUIT    351.75     0  03:00      0.45    0.31    1.00
  YS02164001YS02001641 CONDUIT    352.07     0  03:00      0.45    0.48    1.00
  YS02001641YS02001644 CONDUIT    351.74     0  03:00      0.45    1.14    1.00
  YS02001647YS02001649 CONDUIT    512.65     0  02:30      0.65    0.27    1.00
  YS02006553YS02006556 CONDUIT    527.09     0  03:09      0.67    0.45    1.00
  YS02006556YS02006558 CONDUIT    527.31     0  03:09      0.67    0.42    1.00
  YSB6556YSB1171       CONDUIT     16.50     0  01:50      0.07    0.02    0.60
  YS02001907YS02006553 CONDUIT    526.35     0  03:08      0.58    0.62    1.00
  YS02006558YS02006561 CONDUIT    753.20     0  03:02      3.16    1.66    0.97
  YS02001633YS02163601 CONDUIT    351.50     0  03:00      0.45    0.37    1.00
  YS02001644YS02001647 CONDUIT    511.76     0  02:40      0.65    0.30    1.00
  YS02001745YS02001748 CONDUIT    389.43     0  02:30      1.51    0.15    0.94
  YS02001748YS02001751 CONDUIT    429.69     0  02:13      1.12    0.22    1.00
  YS02001751YS02001754 CONDUIT    206.28     0  02:57      0.97    0.10    1.00
  YS02001754YS02001757 CONDUIT    206.34     0  02:58      0.33    0.08    1.00
  YS02001882YS02001884 CONDUIT     11.57     0  02:17      0.12    0.01    0.86
  YS02001884YS02001887 CONDUIT     17.85     0  03:19      0.09    0.02    0.96
  YS02001890YS02001895 CONDUIT    266.51     0  03:01      0.43    0.12    0.90
  YS02001895YS02001898 CONDUIT    264.55     0  03:01      0.55    0.46    0.79
  YS02001898YS02001901 CONDUIT    262.59     0  03:01      0.47    0.17    0.87
  YS02001901YS02001904 CONDUIT    261.82     0  03:02      0.43    0.41    0.93
  YS02001904YS02001907 CONDUIT    262.06     0  03:02      0.37    0.09    0.96
  YS02001887YS02001890 CONDUIT    268.06     0  02:59      0.38    0.46    1.00
  YS02001652YS02001649 CONDUIT    246.51     0  02:46      0.58    0.12    1.00
  YS02001655YS02001652 CONDUIT    244.38     0  02:56      1.05    0.12    1.00
  YS02001658YS02001655 CONDUIT    345.00     0  02:16      1.29    0.15    1.00
  YS02001661YS02001658 CONDUIT    527.34     0  02:27      1.59    0.21    1.00
  YS02001664YS02001661 CONDUIT    537.66     0  02:45      1.44    0.17    0.72
  YSB1154YSB6556       CONDUIT     16.24     0  01:49      0.17    0.03    0.49
  YSB1174YSB1171       CONDUIT     13.24     0  01:45      0.06    0.02    0.61
  YSB1171HS02004479    CONDUIT     29.02     0  01:50      0.54    0.02    0.47
  HS02004881HS02006253 CONDUIT     49.92     0  01:50      1.83    0.01    0.22
  YS02001793JiankangQianchi CONDUIT    798.31     0  02:02      9.70    0.06    1.00
  YS02001757CaochengTiaoxuchi CONDUIT   1289.46     0  02:42      1.85    0.57    1.00
  WSF200WS02003060     CONDUIT    486.82     0  02:19      1.99    0.11    0.28
  1                    CONDUIT    585.29     0  02:16      2.87    0.20    0.31
  2                    CONDUIT     48.15     0  03:11      3.94    0.12    0.23
  3                    CONDUIT    465.53     0  05:00      9.67    0.74    0.65
  4                    CONDUIT      0.00     0  00:00      0.00    0.00    0.00
  CC-Pump-1            PUMP       199.99     0  04:20              1.00
  CC-Pump-2            PUMP       200.00     0  02:00              1.00
  JK-Pump-1            PUMP       300.00     0  00:30              1.00
  JK-Pump-2            PUMP       300.00     0  05:00              1.00
  XR-Pump-1            PUMP        95.00     0  01:20              1.00
  XR-Pump-2            PUMP        94.97     0  02:10              1.00
  XR-Pump-3            PUMP        94.99     0  02:00              1.00
  XR-Pump-4            PUMP        95.00     0  04:00              1.00
  
  
  ***************************
  Flow Classification Summary
  ***************************
  
  -------------------------------------------------------------------------------------
                      Adjusted    ---------- Fraction of Time in Flow Class ---------- 
                       /Actual         Up    Down  Sub   Sup   Up    Down  Norm  Inlet 
  Conduit               Length    Dry  Dry   Dry   Crit  Crit  Crit  Crit  Ltd   Ctrl  
  -------------------------------------------------------------------------------------
  WS02003066WSF200        1.00   0.07  0.00  0.00  0.00  0.93  0.00  0.00  0.79  0.00
  WS02006287WS02006284    1.00   0.05  0.01  0.00  0.60  0.34  0.00  0.00  0.70  0.00
  WS02006284WS02006280    1.00   0.06  0.00  0.00  0.00  0.00  0.00  0.94  0.00  0.00
  WS02006280WS02006229    1.00   0.06  0.00  0.00  0.00  0.00  0.00  0.94  0.00  0.00
  WS02006229WS02006228    1.00   0.00  0.00  0.00  1.00  0.00  0.00  0.00  0.00  0.00
  WS02006256WS02006235    1.00   0.01  0.00  0.00  0.99  0.00  0.00  0.00  0.00  0.00
  WS02006253WS02006251    1.00   0.01  0.04  0.00  0.94  0.00  0.00  0.00  0.00  0.00
  WS02006252WS02006251    1.00   0.10  0.08  0.00  0.00  0.00  0.81  0.00  0.00  0.00
  WS02006251WS02006249    1.00   0.00  0.00  0.00  1.00  0.00  0.00  0.00  0.42  0.00
  WS02006249WS02006248    1.00   0.00  0.00  0.00  0.66  0.00  0.33  0.00  0.00  0.00
  WS02006248WS02006247    1.00   0.00  0.00  0.00  0.96  0.00  0.00  0.03  0.41  0.00
  WS02006247WS02006245    1.00   0.01  0.00  0.00  0.94  0.00  0.00  0.05  0.00  0.00
  WS02006245WS02006243    1.00   0.01  0.00  0.00  0.91  0.00  0.00  0.08  0.04  0.00
  WS02006243WS02006242    1.00   0.01  0.00  0.00  0.99  0.00  0.00  0.00  0.33  0.00
  WS02006242WS02006240    1.00   0.01  0.00  0.00  0.98  0.00  0.01  0.00  0.00  0.00
  WS02006240WS02006239    1.00   0.01  0.00  0.00  0.93  0.00  0.00  0.06  0.02  0.00
  WS02006239WS02006238    1.00   0.01  0.00  0.00  0.99  0.00  0.00  0.00  0.05  0.00
  WS02006238WS02006235    1.00   0.01  0.00  0.00  0.99  0.00  0.00  0.00  0.00  0.00
  WS02006235WS02006234    1.00   0.01  0.00  0.00  0.96  0.00  0.03  0.00  0.00  0.00
  WS02006234WS02006232    1.00   0.01  0.00  0.00  0.99  0.00  0.00  0.00  0.02  0.00
  WS02006232WS02006231    1.00   0.01  0.00  0.00  0.99  0.00  0.00  0.00  0.00  0.00
  WS02006231WS02006230    1.00   0.01  0.00  0.00  0.31  0.00  0.68  0.00  0.00  0.00
  WS02006230WS02006229    1.00   0.00  0.00  0.00  0.99  0.00  0.00  0.01  0.01  0.00
  WS02006228WS02006109    1.00   0.00  0.00  0.00  1.00  0.00  0.00  0.00  0.01  0.00
  WS02006116WS02004401    1.00   0.04  0.00  0.00  0.96  0.00  0.00  0.00  0.00  0.00
  WS02006115WS02006116    1.00   0.03  0.00  0.00  0.96  0.00  0.00  0.01  0.00  0.00
  WS02006113WS02006111    1.00   0.02  0.00  0.00  0.00  0.98  0.00  0.00  0.24  0.00
  WS02006112WS02006115    1.00   0.02  0.01  0.00  0.96  0.00  0.01  0.00  0.00  0.00
  WS02006111WS02006112    1.00   0.02  0.00  0.00  0.97  0.00  0.00  0.01  0.93  0.00
  WS02006110WS02006113    1.00   0.00  0.02  0.00  0.98  0.00  0.00  0.00  0.00  0.00
  WS02006109WS02006110    1.00   0.00  0.00  0.00  0.99  0.00  0.00  0.00  0.00  0.00
  WS02004411WS02004412    1.00   0.05  0.00  0.00  0.95  0.00  0.00  0.00  0.00  0.00
  WS02004401WS02004402    1.00   0.04  0.00  0.00  0.96  0.00  0.00  0.00  0.00  0.00
  WS02004413WS02003067    1.00   0.05  0.01  0.00  0.00  0.00  0.94  0.00  0.00  0.00
  WS02004412WS02004413    1.00   0.05  0.00  0.00  0.95  0.00  0.00  0.00  0.01  0.00
  WS02004410WS02004411    1.00   0.05  0.00  0.00  0.95  0.00  0.00  0.00  0.01  0.00
  WS02004409WS02004410    1.00   0.05  0.00  0.00  0.95  0.00  0.00  0.00  0.03  0.00
  WS02004407WS02004409    1.00   0.05  0.00  0.00  0.95  0.00  0.00  0.00  0.89  0.00
  WS02004406WS02004407    1.00   0.00  0.05  0.00  0.95  0.00  0.00  0.00  0.00  0.00
  WS02004405WS02004406    1.00   0.00  0.00  0.00  1.00  0.00  0.00  0.00  0.04  0.00
  WS02004404WS02004405    1.00   0.00  0.00  0.00  1.00  0.00  0.00  0.00  0.00  0.00
  WS02004403WS02004404    1.00   0.00  0.04  0.00  0.96  0.00  0.00  0.00  0.00  0.00
  WS02004402WS02004403    1.00   0.04  0.00  0.00  0.96  0.00  0.00  0.00  0.00  0.00
  WS02004139WS02001211    1.00   0.00  0.00  0.00  1.00  0.00  0.00  0.00  0.00  0.00
  WS02004138WS02004139    1.00   0.00  0.01  0.00  0.98  0.00  0.00  0.00  0.98  0.00
  WS02003067WS02003066    1.00   0.06  0.01  0.00  0.93  0.00  0.00  0.00  0.00  0.00
  WS02001213WS02003059    1.00   0.00  0.00  0.00  1.00  0.00  0.00  0.00  0.00  0.00
  WS02001212WS02001213    1.00   0.01  0.00  0.00  0.58  0.00  0.42  0.00  0.00  0.00
  WS02001211WS02001212    1.00   0.00  0.01  0.00  0.99  0.00  0.00  0.00  0.00  0.00
  WS02003072WS02003073    1.00   0.00  0.00  0.00  0.00  0.00  0.00  1.00  0.00  0.00
  WS02003069WS02003072    1.00   0.00  0.00  0.00  1.00  0.00  0.00  0.00  0.77  0.00
  WS02003060WS02003069    1.00   0.00  0.00  0.00  0.95  0.05  0.00  0.00  0.54  0.00
  WS02003059WS02003060    1.00   0.00  0.00  0.00  1.00  0.00  0.00  0.00  0.04  0.00
  HS02004901HS02004770    1.00   0.06  0.00  0.00  0.94  0.00  0.00  0.00  0.00  0.00
  HS02004876HS02004881    1.00   0.00  0.00  0.00  1.00  0.00  0.00  0.00  0.00  0.00
  HS02004870HS02004876    1.00   0.00  0.00  0.00  1.00  0.00  0.00  0.00  0.95  0.00
  HS02004842HS02004848    1.00   0.00  0.06  0.00  0.94  0.00  0.00  0.00  0.58  0.00
  HS02004837HS02004842    1.00   0.00  0.00  0.00  1.00  0.00  0.00  0.00  0.11  0.00
  HS02004830HS02004837    1.00   0.00  0.00  0.00  1.00  0.00  0.00  0.00  0.99  0.00
  HS02004824HS02004830    1.00   0.00  0.00  0.00  1.00  0.00  0.00  0.00  0.00  0.00
  HS02004817HS02004824    1.00   0.00  0.00  0.00  1.00  0.00  0.00  0.00  1.00  0.00
  HS02004770HS02004777    1.00   0.00  0.06  0.00  0.94  0.00  0.00  0.00  0.03  0.00
  HS02004799HS02004480    1.00   0.00  0.01  0.00  0.94  0.00  0.05  0.00  0.00  0.00
  HS02004792HS02004799    1.00   0.00  0.00  0.00  1.00  0.00  0.00  0.00  0.98  0.00
  HS02004788HS02004792    1.00   0.00  0.00  0.00  1.00  0.00  0.00  0.00  0.98  0.00
  HS02004785HS02004788    1.00   0.00  0.00  0.00  1.00  0.00  0.00  0.00  0.00  0.00
  HS02004777HS02004785    1.00   0.00  0.00  0.00  1.00  0.00  0.00  0.00  0.12  0.00
  HS02004480HS02004478    1.00   0.06  0.00  0.00  0.65  0.00  0.00  0.30  0.00  0.00
  HS02004479HS02004480    1.00   0.01  0.00  0.00  0.99  0.00  0.00  0.00  0.12  0.00
  HS02004862HS02004870    1.00   0.00  0.00  0.00  1.00  0.00  0.00  0.00  0.04  0.00
  HS02004848HS02004852    1.00   0.06  0.00  0.00  0.94  0.00  0.00  0.00  0.77  0.00
  HS02004856HS02004862    1.00   0.00  0.07  0.00  0.93  0.00  0.00  0.00  0.83  0.00
  HS02004852HS02004856    1.00   0.06  0.00  0.00  0.94  0.00  0.00  0.00  0.86  0.00
  HS02004802HS02004478    1.00   0.06  0.00  0.00  0.94  0.00  0.00  0.00  0.03  0.00
  HS02004478WS02006287    1.00   0.06  0.00  0.00  0.73  0.21  0.00  0.00  0.68  0.00
  HS02004817HS02004807    1.00   0.00  0.06  0.00  0.94  0.00  0.00  0.00  0.01  0.00
  HS02004807HS02004802    1.00   0.06  0.00  0.00  0.94  0.00  0.00  0.00  0.00  0.00
  YS02001759YS02001757    1.00   0.00  0.00  0.00  1.00  0.00  0.00  0.00  0.16  0.00
  YS02001762YS02001759    1.00   0.00  0.00  0.00  1.00  0.00  0.00  0.00  0.03  0.00
  YS02001765YS02001762    1.00   0.00  0.00  0.00  1.00  0.00  0.00  0.00  0.14  0.00
  YS02001770YS02001767    1.00   0.00  0.00  0.00  1.00  0.00  0.00  0.00  0.00  0.00
  YS02001774YS02001770    1.00   0.00  0.06  0.00  0.94  0.00  0.00  0.00  0.03  0.00
  YS02001779YS02001774    1.00   0.00  0.00  0.00  1.00  0.00  0.00  0.00  0.18  0.00
  YS02001649YS02001757    1.00   0.00  0.00  0.00  1.00  0.00  0.00  0.00  0.16  0.00
  YS02001767YS02001765    1.00   0.00  0.00  0.00  1.00  0.00  0.00  0.00  0.00  0.00
  YS02006561YS02001783    1.00   0.07  0.00  0.00  0.40  0.53  0.00  0.00  0.62  0.00
  YS02001783YS02001784    1.00   0.00  0.07  0.00  0.93  0.00  0.00  0.00  0.00  0.00
  YS02001784YS02001785    1.00   0.00  0.00  0.00  1.00  0.00  0.00  0.00  0.17  0.00
  YS02001788YS02001790    1.00   0.00  0.00  0.00  0.57  0.43  0.00  0.00  0.48  0.00
  YS02001790YS02001791    1.00   0.00  0.00  0.00  0.53  0.47  0.00  0.00  0.33  0.00
  YS02001791YS02001793    1.00   0.00  0.00  0.00  0.57  0.43  0.00  0.00  0.04  0.00
  YS02001910YS02001907    1.00   0.00  0.00  0.00  0.99  0.00  0.00  0.01  0.12  0.00
  YS02001786YS02001788    1.00   0.00  0.00  0.00  0.52  0.48  0.00  0.00  0.00  0.00
  YS02001915YS02001910    1.00   0.00  0.00  0.00  0.99  0.01  0.00  0.00  0.16  0.00
  YS02001918YS02001915    1.00   0.00  0.00  0.00  0.99  0.00  0.00  0.00  0.60  0.00
  YS02001923YS02001920    1.00   0.00  0.00  0.00  1.00  0.00  0.00  0.00  0.93  0.00
  YS02001926YS02001923    1.00   0.00  0.04  0.00  0.00  0.00  0.96  0.00  0.00  0.00
  YS02001929YS02001926    1.00   0.00  0.06  0.00  0.94  0.00  0.00  0.00  0.87  0.00
  YS02001920YS02001918    1.00   0.00  0.00  0.00  1.00  0.00  0.00  0.00  0.00  0.00
  YS02001629YS02163301    1.00   0.06  0.00  0.00  0.94  0.00  0.00  0.00  0.00  0.00
  YS02001619YS02001622    1.00   0.06  0.00  0.00  0.94  0.00  0.00  0.00  0.00  0.00
  YS02001622YS02001625    1.00   0.06  0.00  0.00  0.94  0.00  0.00  0.00  0.04  0.00
  YS02001625YS02001629    1.00   0.06  0.01  0.00  0.92  0.00  0.01  0.00  0.00  0.00
  YS02163301YS02001633    1.00   0.00  0.06  0.00  0.94  0.00  0.00  0.00  0.00  0.00
  YS02163601YS02164001    1.00   0.00  0.04  0.00  0.96  0.00  0.00  0.00  0.00  0.00
  YS02164001YS02001641    1.00   0.00  0.04  0.00  0.96  0.00  0.00  0.00  0.06  0.00
  YS02001641YS02001644    1.00   0.00  0.00  0.00  1.00  0.00  0.00  0.00  0.00  0.00
  YS02001647YS02001649    1.00   0.00  0.07  0.00  0.93  0.00  0.00  0.00  0.01  0.00
  YS02006553YS02006556    1.00   0.00  0.00  0.00  1.00  0.00  0.00  0.00  0.03  0.00
  YS02006556YS02006558    1.00   0.00  0.00  0.00  1.00  0.00  0.00  0.00  0.00  0.00
  YSB6556YSB1171          1.00   0.01  0.05  0.00  0.95  0.00  0.00  0.00  0.00  0.00
  YS02001907YS02006553    1.00   0.00  0.00  0.00  0.99  0.00  0.00  0.00  0.00  0.00
  YS02006558YS02006561    1.00   0.07  0.00  0.00  0.06  0.88  0.00  0.00  0.55  0.00
  YS02001633YS02163601    1.00   0.00  0.00  0.00  1.00  0.00  0.00  0.00  0.15  0.00
  YS02001644YS02001647    1.00   0.00  0.07  0.00  0.93  0.00  0.00  0.00  0.00  0.00
  YS02001745YS02001748    1.00   0.00  0.00  0.00  0.89  0.01  0.00  0.10  0.04  0.00
  YS02001748YS02001751    1.00   0.00  0.00  0.00  0.97  0.03  0.00  0.00  0.14  0.00
  YS02001751YS02001754    1.00   0.00  0.00  0.00  0.93  0.00  0.00  0.07  0.02  0.00
  YS02001754YS02001757    1.00   0.00  0.00  0.00  1.00  0.00  0.00  0.00  0.18  0.00
  YS02001882YS02001884    1.00   0.06  0.00  0.00  0.94  0.00  0.00  0.00  0.00  0.00
  YS02001884YS02001887    1.00   0.02  0.03  0.00  0.95  0.00  0.00  0.00  0.00  0.00
  YS02001890YS02001895    1.00   0.00  0.06  0.00  0.94  0.00  0.00  0.00  0.00  0.00
  YS02001895YS02001898    1.00   0.06  0.00  0.00  0.93  0.00  0.01  0.00  0.00  0.00
  YS02001898YS02001901    1.00   0.06  0.00  0.00  0.94  0.00  0.00  0.00  0.01  0.00
  YS02001901YS02001904    1.00   0.06  0.00  0.00  0.94  0.00  0.00  0.00  0.00  0.00
  YS02001904YS02001907    1.00   0.00  0.06  0.00  0.94  0.00  0.00  0.00  0.00  0.00
  YS02001887YS02001890    1.00   0.00  0.00  0.00  0.99  0.00  0.01  0.00  0.00  0.00
  YS02001652YS02001649    1.00   0.00  0.00  0.00  1.00  0.00  0.00  0.00  0.16  0.00
  YS02001655YS02001652    1.00   0.00  0.00  0.00  0.93  0.00  0.00  0.07  0.02  0.00
  YS02001658YS02001655    1.00   0.00  0.06  0.00  0.92  0.02  0.00  0.00  0.05  0.00
  YS02001661YS02001658    1.00   0.06  0.00  0.00  0.89  0.06  0.00  0.00  0.04  0.00
  YS02001664YS02001661    1.00   0.06  0.00  0.00  0.85  0.09  0.00  0.00  0.20  0.00
  YSB1154YSB6556          1.00   0.05  0.00  0.00  0.95  0.00  0.00  0.00  0.02  0.00
  YSB1174YSB1171          1.00   0.01  0.04  0.00  0.95  0.00  0.00  0.00  0.00  0.00
  YSB1171HS02004479       1.00   0.01  0.00  0.00  0.99  0.00  0.00  0.00  0.10  0.00
  HS02004881HS02006253    1.00   0.01  0.00  0.00  0.33  0.04  0.00  0.62  0.23  0.00
  YS02001793JiankangQianchi    1.00   0.00  0.00  0.00  0.96  0.04  0.00  0.00  0.39  0.00
  YS02001757CaochengTiaoxuchi    1.00   0.00  0.08  0.00  0.92  0.00  0.00  0.00  0.00  0.00
  WSF200WS02003060        1.00   0.00  0.07  0.00  0.16  0.76  0.00  0.00  0.30  0.00
  1                       1.00   0.00  0.00  0.00  0.00  1.00  0.00  0.00  0.28  0.00
  2                       1.00   0.91  0.00  0.00  0.00  0.09  0.00  0.00  0.02  0.00
  3                       1.00   0.56  0.00  0.00  0.00  0.44  0.00  0.00  0.01  0.00
  4                       1.00   1.00  0.00  0.00  0.00  0.00  0.00  0.00  0.00  0.00
  
  
  *************************
  Conduit Surcharge Summary
  *************************
  
  ----------------------------------------------------------------------------
                                                           Hours        Hours 
                         --------- Hours Full --------   Above Full   Capacity
  Conduit                Both Ends  Upstream  Dnstream   Normal Flow   Limited
  ----------------------------------------------------------------------------
  WS02006229WS02006228        0.67      0.75      0.67      1.41         0.66
  WS02006256WS02006235        4.39      4.39      7.07      2.42         0.01
  WS02006252WS02006251        0.18      0.18      0.51      0.43         0.01
  WS02006251WS02006249        0.01      0.01      0.01      0.19         0.01
  WS02006249WS02006248        0.01      0.01      0.01      1.16         0.01
  WS02006247WS02006245        0.01      0.01      0.01      1.96         0.01
  WS02006245WS02006243        0.01      0.01      0.01      0.06         0.01
  WS02006242WS02006240        0.01      0.01      0.06      0.54         0.01
  WS02006240WS02006239        0.01      0.01      0.01      0.06         0.01
  WS02006239WS02006238        0.01      0.01      0.01      0.07         0.01
  WS02006238WS02006235        0.01      0.01      0.09      0.01         0.01
  WS02006235WS02006234        0.01      0.01      0.01      4.23         0.01
  WS02006234WS02006232        0.01      0.01      0.09      0.01         0.01
  WS02006232WS02006231        0.01      0.01      0.09      0.01         0.01
  WS02006231WS02006230        0.01      0.01      0.01      4.72         0.01
  WS02006230WS02006229        1.01      1.11      1.01      5.81         1.01
  WS02006228WS02006109        0.69      0.89      0.69      2.82         0.69
  WS02006111WS02006112        0.01      0.01      1.48      0.01         0.01
  WS02006110WS02006113        0.01      0.01      0.82      0.01         0.01
  WS02006109WS02006110        0.01      0.01      0.90      0.01         0.01
  WS02004404WS02004405        0.01      0.01      0.01      5.43         0.01
  WS02003072WS02003073        0.01      0.01      0.01      0.95         0.01
  YS02001759YS02001757        5.97      5.97      6.03      0.01         0.01
  YS02001762YS02001759        5.94      5.94      5.97      0.01         0.01
  YS02001765YS02001762        5.92      5.92      5.94      0.01         0.01
  YS02001770YS02001767        5.90      5.90      5.90      0.01         0.66
  YS02001774YS02001770        5.88      5.88      5.93      0.01         0.01
  YS02001779YS02001774        5.68      5.68      5.93      0.01         0.01
  YS02001649YS02001757        5.95      5.95      6.03      0.01         0.01
  YS02001767YS02001765        5.90      5.90      5.92      0.01         0.01
  YS02006561YS02001783        0.01      0.01      1.22      0.01         0.01
  YS02001783YS02001784        1.22      1.22      1.31      0.31         0.38
  YS02001784YS02001785        1.23      1.31      1.23      1.88         1.23
  YS02001788YS02001790        1.19      1.19      2.88      0.01         0.01
  YS02001790YS02001791        2.88      2.88      3.06      0.01         0.01
  YS02001791YS02001793        3.06      3.06      3.76      0.01         0.01
  YS02001910YS02001907        0.21      0.21      1.24      0.01         0.01
  YS02001786YS02001788        1.19      1.23      1.19      1.46         1.18
  YS02001915YS02001910        0.01      0.01      0.21      0.01         0.01
  YS02001629YS02163301        5.88      5.88      5.89      0.01         0.01
  YS02001619YS02001622        5.44      5.44      5.50      0.01         0.01
  YS02001622YS02001625        5.50      5.50      5.84      0.01         0.01
  YS02001625YS02001629        5.46      5.46      5.84      0.01         0.01
  YS02163301YS02001633        5.89      5.89      5.92      0.01         0.01
  YS02163601YS02164001        5.92      5.92      5.95      0.01         0.01
  YS02164001YS02001641        5.92      5.92      5.93      0.01         0.01
  YS02001641YS02001644        5.93      5.93      5.93      0.71         1.04
  YS02001647YS02001649        5.81      5.81      5.95      0.01         0.01
  YS02006553YS02006556        0.67      0.67      1.32      0.01         0.01
  YS02006556YS02006558        0.98      0.98      1.43      0.01         0.01
  YS02001907YS02006553        1.93      1.93      2.19      0.01         0.01
  YS02006558YS02006561        0.01      0.60      0.01      1.76         0.01
  YS02001633YS02163601        5.91      5.91      5.95      0.01         0.01
  YS02001644YS02001647        5.81      5.81      5.93      0.01         0.01
  YS02001745YS02001748        0.01      0.01      5.19      0.01         0.01
  YS02001748YS02001751        5.26      5.26      5.47      0.01         0.01
  YS02001751YS02001754        5.47      5.47      5.71      0.01         0.01
  YS02001754YS02001757        5.79      5.79      6.03      0.01         0.01
  YS02001890YS02001895        0.01      0.01      0.26      0.01         0.01
  YS02001904YS02001907        0.01      0.01      1.37      0.01         0.01
  YS02001887YS02001890        0.01      0.01      0.15      0.01         0.01
  YS02001652YS02001649        5.83      5.83      5.95      0.01         0.01
  YS02001655YS02001652        5.52      5.52      5.77      0.01         0.01
  YS02001658YS02001655        5.23      5.23      5.52      0.01         0.01
  YS02001661YS02001658        0.11      0.11      5.23      0.01         0.01
  YS02001664YS02001661        0.01      0.01      0.60      0.01         0.01
  YS02001793JiankangQianchi        3.57      3.57      6.55      0.01         0.01
  YS02001757CaochengTiaoxuchi        5.17      5.17      6.03      0.01         0.01
  
  
  ***************
  Pumping Summary
  ***************
  
  ---------------------------------------------------------------------------------------------------------
                                                  Min       Avg       Max     Total     Power    % Time Off
                        Percent   Number of      Flow      Flow      Flow    Volume     Usage    Pump Curve
  Pump                 Utilized   Start-Ups       LPS       LPS       LPS  10^6 ltr     Kw-hr    Low   High
  ---------------------------------------------------------------------------------------------------------
  CC-Pump-1               17.00           4      0.00    103.96    199.99     0.480      0.42    0.0    0.0
  CC-Pump-2               40.41           6      0.00    127.51    200.00     1.320      1.63    0.0   10.7
  JK-Pump-1               36.18           6      0.00    174.02    300.00     1.383     15.86    0.0    0.0
  JK-Pump-2               23.40           4      0.00    183.18    300.00     1.080      9.48    0.0    0.0
  XR-Pump-1               51.05           7      0.00     58.38     95.00     0.798      3.74    0.0    0.0
  XR-Pump-2               12.77           3      0.00     50.94     94.97     0.171      0.86    0.0    0.0
  XR-Pump-3               17.03           4      0.00     44.95     94.99     0.228      1.01    0.0    0.0
  XR-Pump-4               19.14           4      0.00     53.73     95.00     0.285      1.37    0.0    0.0
  

  Analysis begun on:  Tue Jan  4 16:39:07 2022
  Analysis ended on:  Tue Jan  4 16:39:10 2022
  Total elapsed time: 00:00:03