
  EPA STORM WATER MANAGEMENT MODEL - VERSION 5.1 (Build 5.3.0.dev0)
  --------------------------------------------------------------

  WARNING 04: minimum elevation drop used for Conduit WS02004404WS02004405
  WARNING 03: negative offset ignored for Link YS02001904YS02001907
  
  *********************************************************
  NOTE: The summary statistics displayed in this report are
  based on results found at every computational time step,  
  not just on results from each reporting time step.
  *********************************************************
  
  ****************
  Analysis Options
  ****************
  Flow Units ............... LPS
  Process Models:
    Rainfall/Runoff ........ YES
    RDII ................... NO
    Snowmelt ............... NO
    Groundwater ............ NO
    Flow Routing ........... YES
    Ponding Allowed ........ NO
    Water Quality .......... NO
  Infiltration Method ...... HORTON
  Flow Routing Method ...... DYNWAVE
  Surcharge Method ......... EXTRAN
  Starting Date ............ 08/28/2015 08:00:00
  Ending Date .............. 08/28/2015 15:50:00
  Antecedent Dry Days ...... 8.0
  Report Time Step ......... 00:01:00
  Wet Time Step ............ 00:01:00
  Dry Time Step ............ 00:01:00
  Routing Time Step ........ 5.00 sec
  Variable Time Step ....... YES
  Maximum Trials ........... 8
  Number of Threads ........ 4
  Head Tolerance ........... 0.001500 m
  
  
  **************************        Volume         Depth
  Runoff Quantity Continuity     hectare-m            mm
  **************************     ---------       -------
  Total Precipitation ......         1.372         3.003
  Evaporation Loss .........         0.000         0.000
  Infiltration Loss ........         0.331         0.726
  Surface Runoff ...........         0.327         0.716
  Final Storage ............         0.714         1.562
  Continuity Error (%) .....        -0.014
  
  
  **************************        Volume        Volume
  Flow Routing Continuity        hectare-m      10^6 ltr
  **************************     ---------     ---------
  Dry Weather Inflow .......         0.616         6.165
  Wet Weather Inflow .......         0.327         3.267
  Groundwater Inflow .......         0.000         0.000
  RDII Inflow ..............         0.000         0.000
  External Inflow ..........         0.102         1.024
  External Outflow .........         0.789         7.890
  Flooding Loss ............         0.000         0.000
  Evaporation Loss .........         0.000         0.000
  Exfiltration Loss ........         0.000         0.000
  Initial Stored Volume ....         0.076         0.761
  Final Stored Volume ......         0.332         3.315
  Continuity Error (%) .....         0.091
  
  
  *************************
  Highest Continuity Errors
  *************************
  Node HS02004842 (48.08%)
  Node YS02001774 (41.20%)
  Node YS02001884 (40.65%)
  Node YS02001625 (16.98%)
  Node YSB1171 (16.42%)
  
  
  ***************************
  Time-Step Critical Elements
  ***************************
  Link WS02006280WS02006229 (42.17%)
  Link 3 (40.47%)
  Link WS02006238WS02006235 (4.68%)
  
  
  ********************************
  Highest Flow Instability Indexes
  ********************************
  Link YS02001754YS02001757 (8)
  Link YS02001751YS02001754 (8)
  Link YS02001767YS02001765 (7)
  Link YS02001762YS02001759 (7)
  Link YS02001652YS02001649 (7)
  
  
  *************************
  Routing Time Step Summary
  *************************
  Minimum Time Step           :     0.50 sec
  Average Time Step           :     2.77 sec
  Maximum Time Step           :     5.00 sec
  Percent in Steady State     :    -0.00
  Average Iterations per Step :     2.05
  Percent Not Converging      :     0.12
  
  
  ***************************
  Subcatchment Runoff Summary
  ***************************
  
  ------------------------------------------------------------------------------------------------------------------------------
                            Total      Total      Total      Total     Imperv       Perv      Total       Total     Peak  Runoff
                           Precip      Runon       Evap      Infil     Runoff     Runoff     Runoff      Runoff   Runoff   Coeff
  Subcatchment                 mm         mm         mm         mm         mm         mm         mm    10^6 ltr      LPS
  ------------------------------------------------------------------------------------------------------------------------------
  sub0                       3.00       0.00       0.00       0.21       1.53       0.00       1.53        0.00     0.35   0.509
  sub1                       3.00       0.00       0.00       0.33       1.42       0.00       1.42        0.01     1.84   0.474
  sub2                       3.00       0.00       0.00       1.11       0.99       0.00       0.99        0.01     1.63   0.330
  sub3                       3.00       0.00       0.00       1.11       0.96       0.00       0.96        0.02     3.37   0.321
  sub4                       3.00       0.00       0.00       0.33       1.31       0.00       1.31        0.03     3.78   0.437
  sub5                       3.00       0.00       0.00       0.21       1.49       0.00       1.49        0.02     3.27   0.495
  sub7                       3.00       0.00       0.00       0.27       1.48       0.00       1.48        0.00     1.14   0.493
  sub8                       3.00       0.00       0.00       0.27       1.47       0.00       1.47        0.01     2.03   0.490
  sub9                       3.00       0.00       0.00       0.27       1.47       0.00       1.47        0.01     1.50   0.489
  sub10                      3.00       0.00       0.00       0.24       1.48       0.00       1.48        0.02     3.26   0.491
  sub11                      3.00       0.00       0.00       0.24       1.49       0.00       1.49        0.02     3.81   0.496
  sub12                      3.00       0.00       0.00       0.39       1.42       0.00       1.42        0.01     3.20   0.474
  sub14                      3.00       0.00       0.00       0.27       1.47       0.00       1.47        0.01     2.94   0.489
  sub15                      3.00       0.00       0.00       0.90       1.13       0.00       1.13        0.02     3.99   0.375
  sub16                      3.00       0.00       0.00       0.99       1.09       0.00       1.09        0.01     2.82   0.364
  sub17                      3.00       0.00       0.00       0.96       1.11       0.00       1.11        0.01     2.28   0.369
  sub22                      3.00       0.00       0.00       1.29       0.92       0.00       0.92        0.06    13.01   0.308
  sub23                      3.00       0.00       0.00       1.11       1.02       0.00       1.02        0.05    11.07   0.341
  sub60                      3.00       0.00       0.00       0.36       0.76       0.00       0.76        0.23    17.97   0.253
  sub61                      3.00       0.00       0.00       0.51       0.86       0.00       0.86        0.27    23.47   0.288
  sub62                      3.00       0.00       0.00       0.24       0.91       0.00       0.91        0.28    23.75   0.303
  sub63                      3.00       0.00       0.00       0.87       0.79       0.00       0.79        0.24    22.15   0.263
  sub64                      3.00       0.00       0.00       0.45       0.72       0.00       0.72        0.22    17.01   0.240
  sub65                      3.00       0.00       0.00       0.39       0.73       0.00       0.73        0.22    17.20   0.242
  sub66                      3.00       0.00       0.00       0.87       0.64       0.00       0.64        0.20    15.81   0.214
  sub67                      3.00       0.00       0.00       0.24       1.06       0.00       1.06        0.33    31.28   0.353
  sub68                      3.00       0.00       0.00       0.42       0.93       0.00       0.93        0.29    26.14   0.311
  sub69                      3.00       0.00       0.00       0.45       1.07       0.00       1.07        0.25    26.35   0.358
  sub70                      3.00       1.10       0.00       1.39       1.12       0.00       1.12        0.26    17.56   0.274
  sub71                      3.00       0.00       0.00       0.24       0.85       0.00       0.85        0.20    16.34   0.283
  sub72                      3.00       0.00       0.00       0.21       0.53       0.00       0.53        0.11     7.12   0.177
  sub73                      3.00       1.09       0.00       1.39       1.03       0.00       1.03        0.24    15.17   0.252
  sub74                      3.00       0.00       0.00       2.25       0.33       0.00       0.33        0.13    14.74   0.110
  
  
  ******************
  Node Depth Summary
  ******************
  
  ---------------------------------------------------------------------------------
                                 Average  Maximum  Maximum  Time of Max    Reported
                                   Depth    Depth      HGL   Occurrence   Max Depth
  Node                 Type       Meters   Meters   Meters  days hr:min      Meters
  ---------------------------------------------------------------------------------
  WS02001211           JUNCTION     0.63     0.69     5.53     0  02:39        0.69
  WS02001212           JUNCTION     0.35     0.40     5.46     0  03:38        0.40
  WS02001213           JUNCTION     0.53     0.61     5.37     0  03:34        0.61
  WS02003069           JUNCTION     0.30     0.37     4.95     0  03:33        0.37
  WS02003072           JUNCTION     0.37     0.44     4.81     0  03:34        0.44
  WS02003073           JUNCTION     0.21     0.26     4.32     0  03:35        0.26
  WS02003060           JUNCTION     0.27     0.33     5.26     0  03:33        0.33
  WS02003066           JUNCTION     0.11     0.17     5.73     0  03:10        0.17
  WS02003059           JUNCTION     0.59     0.66     5.35     0  03:34        0.66
  WS02003067           JUNCTION     0.31     0.46     5.78     0  03:10        0.46
  WS02004401           JUNCTION     0.37     0.51     6.51     0  03:04        0.51
  WS02004402           JUNCTION     0.40     0.55     6.51     0  03:04        0.55
  WS02004403           JUNCTION     0.43     0.57     6.50     0  03:04        0.57
  WS02004404           JUNCTION     0.51     0.65     6.50     0  03:02        0.65
  WS02004406           JUNCTION     0.52     0.67     6.50     0  03:02        0.67
  WS02004409           JUNCTION     0.18     0.31     6.08     0  03:08        0.31
  WS02004410           JUNCTION     0.20     0.34     6.06     0  03:09        0.34
  WS02004411           JUNCTION     0.23     0.36     6.04     0  03:09        0.36
  WS02004412           JUNCTION     0.26     0.39     6.03     0  03:09        0.39
  WS02004413           JUNCTION     0.39     0.56     6.03     0  03:09        0.56
  WS02004405           JUNCTION     0.50     0.65     6.50     0  03:02        0.65
  WS02006109           JUNCTION     0.42     0.59     7.21     0  02:59        0.59
  WS02006110           JUNCTION     0.45     0.61     7.19     0  02:59        0.60
  WS02006111           JUNCTION     0.09     0.16     6.87     0  03:00        0.16
  WS02006112           JUNCTION     0.50     0.65     6.53     0  03:00        0.65
  WS02006113           JUNCTION     0.12     0.24     7.13     0  02:59        0.24
  WS02006115           JUNCTION     0.25     0.38     6.52     0  03:04        0.38
  WS02006116           JUNCTION     0.34     0.47     6.51     0  03:04        0.47
  WS02006230           JUNCTION     0.31     0.48     7.23     0  02:58        0.48
  WS02006231           JUNCTION     0.14     0.32     7.44     0  02:58        0.32
  WS02006232           JUNCTION     0.22     0.44     7.48     0  02:57        0.44
  WS02006234           JUNCTION     0.14     0.33     7.49     0  02:57        0.33
  WS02006235           JUNCTION     0.17     0.36     7.53     0  02:57        0.36
  WS02006238           JUNCTION     0.19     0.38     7.53     0  02:57        0.38
  WS02006240           JUNCTION     0.09     0.24     7.53     0  02:57        0.24
  WS02006242           JUNCTION     0.11     0.26     7.53     0  02:57        0.26
  WS02006243           JUNCTION     0.04     0.12     7.54     0  02:58        0.12
  WS02006245           JUNCTION     0.04     0.09     7.57     0  02:41        0.09
  WS02006247           JUNCTION     0.05     0.10     7.60     0  02:40        0.10
  WS02006248           JUNCTION     0.03     0.07     7.66     0  02:39        0.07
  WS02006249           JUNCTION     0.06     0.11     7.71     0  02:38        0.11
  WS02006239           JUNCTION     0.13     0.32     7.53     0  02:56        0.31
  WS02006251           JUNCTION     0.04     0.08     7.75     0  02:36        0.08
  WS02006252           JUNCTION     0.00     0.00     8.24     0  00:00        0.00
  WS02006253           JUNCTION     0.07     0.13     7.77     0  02:35        0.13
  WS02006256           JUNCTION     0.60     1.15     8.09     0  02:51        1.14
  WS02004138           JUNCTION     0.14     0.17     7.42     0  06:55        0.17
  WS02004407           JUNCTION     0.08     0.15     6.46     0  03:03        0.15
  WS02006228           JUNCTION     0.39     0.56     7.21     0  02:58        0.56
  WS02006229           JUNCTION     0.35     0.52     7.22     0  02:58        0.51
  WS02006280           JUNCTION     0.04     0.08     8.35     0  02:37        0.08
  WS02006284           JUNCTION     0.33     0.39     8.79     0  02:37        0.39
  WS02006287           JUNCTION     0.06     0.11     9.07     0  02:36        0.11
  WSF200               JUNCTION     0.07     0.14     5.37     0  03:10        0.14
  HS02004901           JUNCTION     0.09     0.15     9.97     0  02:35        0.15
  HS02004881           JUNCTION     0.00     0.01     9.04     0  02:35        0.01
  HS02004876           JUNCTION     0.03     0.06     9.09     0  02:36        0.06
  HS02004870           JUNCTION     0.01     0.02     9.30     0  02:34        0.02
  HS02004862           JUNCTION     0.01     0.02     9.40     0  02:36        0.02
  HS02004856           JUNCTION     0.06     0.08     9.51     0  02:35        0.08
  HS02004852           JUNCTION     0.00     0.01     9.52     0  02:37        0.01
  HS02004848           JUNCTION     0.00     0.01     9.61     0  02:31        0.01
  HS02004842           JUNCTION     0.32     0.34     9.61     0  02:31        0.34
  HS02004837           JUNCTION     0.02     0.03     9.61     0  02:31        0.03
  HS02004830           JUNCTION     0.03     0.04     9.51     0  02:32        0.04
  HS02004824           JUNCTION     0.02     0.02     9.43     0  02:36        0.02
  HS02004817           JUNCTION     0.40     0.45     9.30     0  02:36        0.45
  HS02004807           JUNCTION     0.10     0.13     9.30     0  02:36        0.13
  HS02004802           JUNCTION     0.13     0.17     9.30     0  02:36        0.17
  HS02004799           JUNCTION     0.08     0.14     9.35     0  02:34        0.14
  HS02004792           JUNCTION     0.02     0.04     9.56     0  02:33        0.04
  HS02004788           JUNCTION     0.01     0.03     9.93     0  02:36        0.03
  HS02004785           JUNCTION     0.02     0.07     9.97     0  02:36        0.07
  HS02004777           JUNCTION     0.11     0.17     9.97     0  02:35        0.17
  HS02004770           JUNCTION     0.08     0.14     9.97     0  02:35        0.14
  HS02004480           JUNCTION     0.05     0.10     9.34     0  02:35        0.10
  HS02004479           JUNCTION     0.08     0.14     9.34     0  02:35        0.14
  HS02004478           JUNCTION     0.04     0.07     9.29     0  02:36        0.07
  YS02001745           JUNCTION     0.04     0.06     7.58     0  03:01        0.06
  YS02001748           JUNCTION     0.12     0.31     7.39     0  07:48        0.31
  YS02001751           JUNCTION     0.26     0.51     7.39     0  07:49        0.51
  YS02001754           JUNCTION     0.47     0.78     7.39     0  07:49        0.78
  YS02001762           JUNCTION     0.65     0.99     7.39     0  07:50        0.99
  YS02001765           JUNCTION     0.61     0.94     7.39     0  07:50        0.94
  YS02001767           JUNCTION     0.58     0.90     7.39     0  07:50        0.90
  YS02001770           JUNCTION     0.57     0.89     7.39     0  07:50        0.89
  YS02001774           JUNCTION     0.63     0.96     7.39     0  07:49        0.96
  YS02001779           JUNCTION     0.41     0.70     7.39     0  07:49        0.70
  YS02001882           JUNCTION     0.16     0.24     6.96     0  03:03        0.24
  YS02001884           JUNCTION     0.25     0.34     6.96     0  03:03        0.34
  YS02001759           JUNCTION     0.68     1.02     7.39     0  07:49        1.02
  YS02001887           JUNCTION     0.33     0.42     6.96     0  03:03        0.42
  YS02001890           JUNCTION     0.36     0.45     6.96     0  03:03        0.45
  YS02001898           JUNCTION     0.14     0.21     6.94     0  03:03        0.21
  YS02001901           JUNCTION     0.25     0.33     6.94     0  03:04        0.33
  YS02001904           JUNCTION     0.23     0.31     6.94     0  03:04        0.31
  YS02001907           JUNCTION     0.55     0.65     6.94     0  03:04        0.65
  YS02001910           JUNCTION     0.34     0.44     6.94     0  03:04        0.44
  YS02001915           JUNCTION     0.16     0.22     6.94     0  03:04        0.22
  YS02001918           JUNCTION     0.05     0.05     7.12     0  03:06        0.05
  YS02001619           JUNCTION     0.23     0.46     7.39     0  07:48        0.46
  YS02001629           JUNCTION     0.52     0.84     7.39     0  07:50        0.84
  YS02001641           JUNCTION     0.62     0.95     7.39     0  07:49        0.95
  YS02001644           JUNCTION     0.63     0.95     7.39     0  07:49        0.95
  YS02001652           JUNCTION     0.48     0.79     7.39     0  07:48        0.79
  YS02001655           JUNCTION     0.28     0.54     7.39     0  07:48        0.54
  YS02001920           JUNCTION     0.12     0.14     7.14     0  03:05        0.14
  YS02001923           JUNCTION     0.03     0.04     7.30     0  03:04        0.04
  YS02001926           JUNCTION     0.08     0.10     7.55     0  03:03        0.10
  YS02001929           JUNCTION     0.03     0.04     7.74     0  03:01        0.04
  YS02001658           JUNCTION     0.09     0.25     7.39     0  07:49        0.25
  YS02001661           JUNCTION     0.10     0.14     7.54     0  03:01        0.14
  YS02001664           JUNCTION     0.04     0.06     7.98     0  03:01        0.06
  YS02001622           JUNCTION     0.24     0.48     7.39     0  07:50        0.48
  YS02001633           JUNCTION     0.61     0.93     7.39     0  07:50        0.93
  YS02001649           JUNCTION     0.66     1.00     7.39     0  07:50        1.00
  YS02001757           JUNCTION     0.78     1.13     7.39     0  07:49        1.12
  YS02001895           JUNCTION     0.14     0.21     6.95     0  03:03        0.21
  YS02001625           JUNCTION     0.49     0.78     7.39     0  07:49        0.78
  YS02163301           JUNCTION     0.55     0.87     7.39     0  07:50        0.87
  YS02163601           JUNCTION     0.66     0.99     7.39     0  07:50        0.99
  YS02164001           JUNCTION     0.60     0.93     7.39     0  07:49        0.93
  YS02001647           JUNCTION     0.47     0.78     7.39     0  07:49        0.77
  YSB1154              JUNCTION     0.22     0.29     9.34     0  02:35        0.29
  YSB6556              JUNCTION     0.11     0.18     9.34     0  02:35        0.18
  YSB1174              JUNCTION     0.17     0.24     9.34     0  02:35        0.24
  YSB1171              JUNCTION     0.37     0.44     9.34     0  02:35        0.44
  YS02006553           JUNCTION     0.55     0.66     6.94     0  03:05        0.66
  YS02006561           JUNCTION     0.07     0.11     6.77     0  03:04        0.11
  YS02006556           JUNCTION     0.53     0.63     6.94     0  03:04        0.63
  YS02006558           JUNCTION     0.57     0.67     6.94     0  03:04        0.67
  YS02001783           JUNCTION     0.12     0.19     6.33     0  03:04        0.19
  YS02001784           JUNCTION     0.15     0.23     6.29     0  03:05        0.23
  YS02001786           JUNCTION     0.13     0.19     6.22     0  03:05        0.19
  YS02001788           JUNCTION     0.09     0.14     6.11     0  03:06        0.14
  YS02001790           JUNCTION     0.11     0.16     5.81     0  03:06        0.16
  YS02001791           JUNCTION     0.07     0.11     5.58     0  03:06        0.11
  YS02001793           JUNCTION     0.12     0.55     5.38     0  04:37        0.52
  WS02004139           JUNCTION     0.57     0.63     5.54     0  03:38        0.63
  WSC                  OUTFALL      0.21     0.26     0.93     0  03:35        0.26
  3                    OUTFALL      0.04     0.13     6.13     0  02:51        0.13
  4                    OUTFALL      0.00     0.00     7.00     0  00:00        0.00
  5                    OUTFALL      0.00     0.00     5.00     0  00:00        0.00
  JK-storage           STORAGE      3.77     4.57     5.37     0  04:06        4.56
  CC-storage           STORAGE      0.15     0.38     7.38     0  07:50        0.38
  XR-storage           STORAGE      6.60     7.00     5.00     0  05:35        7.00
  
  
  *******************
  Node Inflow Summary
  *******************
  
  -------------------------------------------------------------------------------------------------
                                  Maximum  Maximum                  Lateral       Total        Flow
                                  Lateral    Total  Time of Max      Inflow      Inflow     Balance
                                   Inflow   Inflow   Occurrence      Volume      Volume       Error
  Node                 Type           LPS      LPS  days hr:min    10^6 ltr    10^6 ltr     Percent
  -------------------------------------------------------------------------------------------------
  WS02001211           JUNCTION      7.35   294.56     0  05:37       0.207           6       0.534
  WS02001212           JUNCTION      0.00   292.67     0  03:37           0        5.96       0.264
  WS02001213           JUNCTION      0.00   292.67     0  03:38           0        5.95       0.300
  WS02003069           JUNCTION      0.32   419.00     0  03:33     0.00902        7.44       0.216
  WS02003072           JUNCTION      0.00   418.96     0  03:34           0        7.43       0.296
  WS02003073           JUNCTION      1.82   420.73     0  03:34      0.0514        7.46       0.308
  WS02003060           JUNCTION     16.53   418.69     0  03:32       0.466        7.46       0.214
  WS02003066           JUNCTION      0.00   120.98     0  03:10           0        1.09       0.172
  WS02003059           JUNCTION      0.00   292.98     0  03:38           0        5.94       0.537
  WS02003067           JUNCTION      0.00   120.99     0  03:09           0        1.09       0.462
  WS02004401           JUNCTION      0.00   147.95     0  03:01           0        1.22       1.008
  WS02004402           JUNCTION      0.00   143.56     0  03:01           0        1.21       1.019
  WS02004403           JUNCTION      0.00   140.15     0  03:01           0        1.19       0.983
  WS02004404           JUNCTION      0.16   137.30     0  03:01     0.00457        1.19       0.805
  WS02004406           JUNCTION      0.00   132.57     0  03:02           0        1.16       2.007
  WS02004409           JUNCTION      0.00   129.46     0  03:03           0        1.14       0.436
  WS02004410           JUNCTION      0.00   127.17     0  03:03           0        1.13       0.597
  WS02004411           JUNCTION      0.00   123.83     0  03:04           0        1.13       0.699
  WS02004412           JUNCTION      0.00   122.48     0  03:07           0        1.12       0.878
  WS02004413           JUNCTION      0.00   121.26     0  03:09           0        1.11       1.492
  WS02004405           JUNCTION      0.04   135.26     0  03:02     0.00107        1.18       1.224
  WS02006109           JUNCTION      1.23   173.65     0  02:58      0.0347        1.27       0.970
  WS02006110           JUNCTION      0.00   168.04     0  02:59           0        1.26       0.860
  WS02006111           JUNCTION      0.00   161.27     0  02:59           0        1.25       0.106
  WS02006112           JUNCTION      2.28   161.16     0  03:00     0.00951        1.25       1.326
  WS02006113           JUNCTION      0.00   162.92     0  02:59           0        1.25       0.213
  WS02006115           JUNCTION      0.00   157.78     0  03:00           0        1.24       0.751
  WS02006116           JUNCTION      0.00   152.63     0  03:00           0        1.23       0.781
  WS02006230           JUNCTION     10.28   130.22     0  02:58        0.29       0.807       0.639
  WS02006231           JUNCTION      0.00   129.68     0  02:57           0       0.515      -0.432
  WS02006232           JUNCTION      0.00   135.84     0  02:57           0       0.525       1.987
  WS02006234           JUNCTION      0.00   138.67     0  02:57           0       0.515      -1.870
  WS02006235           JUNCTION      0.00   166.34     0  02:51           0        0.68       2.058
  WS02006238           JUNCTION      0.00   103.85     0  03:14           0        0.29      -0.054
  WS02006240           JUNCTION      0.00    46.09     0  02:53           0       0.155       0.582
  WS02006242           JUNCTION      0.00    39.31     0  02:54           0      0.0962       1.128
  WS02006243           JUNCTION      0.00    11.66     0  03:18           0      0.0596       0.268
  WS02006245           JUNCTION      0.00     9.67     0  02:40           0      0.0539       0.709
  WS02006247           JUNCTION      0.00     9.68     0  02:39           0       0.054       0.219
  WS02006248           JUNCTION      0.00     9.68     0  02:39           0       0.054       0.068
  WS02006249           JUNCTION      0.00     9.70     0  02:36           0      0.0543       0.613
  WS02006239           JUNCTION      0.00    70.61     0  03:15           0       0.222       0.329
  WS02006251           JUNCTION      0.08     9.71     0  02:35     0.00217      0.0544       0.141
  WS02006252           JUNCTION      0.00     0.00     0  00:00           0           0       0.000 ltr
  WS02006253           JUNCTION      0.35     9.64     0  02:35     0.00124      0.0524       0.297
  WS02006256           JUNCTION      0.00   300.00     0  02:50           0        0.96       0.922
  WS02004138           JUNCTION      0.00   285.00     0  02:17           0        5.81       0.054
  WS02004407           JUNCTION      0.00   130.10     0  03:02           0        1.14       0.216
  WS02006228           JUNCTION      0.00   176.16     0  02:58           0        1.24       0.615
  WS02006229           JUNCTION      0.00   178.74     0  02:58           0        1.25       0.806
  WS02006280           JUNCTION      0.00    58.97     0  02:37           0       0.452       0.017
  WS02006284           JUNCTION      0.10    58.97     0  02:36      0.0027       0.454       0.262
  WS02006287           JUNCTION      0.00    58.88     0  02:36           0       0.452       0.153
  WSF200               JUNCTION      0.00   120.97     0  03:10           0        1.09       0.124
  HS02004901           JUNCTION      2.82     2.82     0  02:23      0.0115      0.0116      17.833
  HS02004881           JUNCTION      1.14     9.37     0  02:34     0.00498      0.0512       0.113
  HS02004876           JUNCTION      1.84     8.36     0  02:33     0.00945      0.0467       1.097
  HS02004870           JUNCTION      2.03     6.56     0  02:33      0.0094      0.0374       0.279
  HS02004862           JUNCTION      1.83     4.65     0  02:34      0.0149      0.0282       0.582
  HS02004856           JUNCTION      1.50     2.83     0  02:33     0.00707      0.0147      10.801
  HS02004852           JUNCTION      0.00     1.42     0  02:34           0     0.00769       0.569
  HS02004848           JUNCTION      3.37     3.37     0  02:35      0.0217      0.0217       0.184
  HS02004842           JUNCTION      0.00     4.49     0  00:03           0       0.027      92.595
  HS02004837           JUNCTION      9.61    11.52     0  02:31       0.195       0.209       0.378
  HS02004830           JUNCTION      0.15    11.67     0  02:31     0.00423         0.2       0.619
  HS02004824           JUNCTION      3.83    15.47     0  02:36      0.0288       0.227       0.237
  HS02004817           JUNCTION      0.60    16.07     0  02:36      0.0169       0.244       7.333
  HS02004807           JUNCTION      3.81    19.58     0  02:35      0.0173       0.244       1.758
  HS02004802           JUNCTION      0.00    19.57     0  02:37           0        0.24       1.714
  HS02004799           JUNCTION      2.94    33.55     0  02:33       0.014       0.201       1.122
  HS02004792           JUNCTION     13.29    30.72     0  02:33      0.0663       0.187       0.225
  HS02004788           JUNCTION      5.66    18.23     0  02:35      0.0665       0.122       0.317
  HS02004785           JUNCTION      0.15    12.82     0  02:34     0.00423      0.0578       0.824
  HS02004777           JUNCTION      0.03    12.92     0  02:31    0.000846      0.0579       9.784
  HS02004770           JUNCTION     11.07    13.43     0  02:25      0.0488      0.0586       5.581
  HS02004480           JUNCTION      0.00    39.38     0  02:34           0       0.227       0.269
  HS02004479           JUNCTION      0.00     5.91     0  02:36           0       0.039       1.897
  HS02004478           JUNCTION      0.00    58.88     0  02:36           0       0.452       0.158
  YS02001745           JUNCTION     17.97    17.97     0  03:01        0.23        0.23       0.128
  YS02001748           JUNCTION      0.04    18.20     0  06:50     0.00127       0.243       2.083
  YS02001751           JUNCTION      0.01    30.87     0  04:41     0.00031       0.246       5.020
  YS02001754           JUNCTION      0.26    61.03     0  04:42     0.00733       0.268       7.801
  YS02001762           JUNCTION      0.00    28.19     0  02:56           0       0.218      10.488
  YS02001765           JUNCTION      0.00    29.62     0  02:56           0       0.221      11.732
  YS02001767           JUNCTION      0.54    30.37     0  02:57      0.0151        0.24      16.117
  YS02001770           JUNCTION     23.90    28.75     0  02:57       0.284       0.294      10.795
  YS02001774           JUNCTION      0.00    13.60     0  02:52           0      0.0585      70.080
  YS02001779           JUNCTION      0.01     7.76     0  05:12    0.000141      0.0245      92.474
  YS02001882           JUNCTION      0.00     1.25     0  02:12           0     0.00223     113.775
  YS02001884           JUNCTION      0.00     3.92     0  02:11           0     0.00934      68.504
  YS02001759           JUNCTION     23.51    51.41     0  02:57       0.268       0.452       5.282
  YS02001887           JUNCTION     31.73    31.73     0  03:01        0.34       0.343       1.780
  YS02001890           JUNCTION      0.00    31.40     0  03:01           0       0.329       2.063
  YS02001898           JUNCTION      0.00    31.15     0  03:01           0        0.32       0.462
  YS02001901           JUNCTION      0.00    31.15     0  03:04           0        0.32       1.393
  YS02001904           JUNCTION      0.00    31.09     0  03:03           0       0.319       1.305
  YS02001907           JUNCTION      0.00    57.15     0  03:04           0       0.695       2.997
  YS02001910           JUNCTION      0.00    26.14     0  03:01           0       0.386       2.317
  YS02001915           JUNCTION     16.36    26.22     0  03:01       0.201       0.389       0.835
  YS02001918           JUNCTION      0.00    10.03     0  03:05           0       0.189       0.319
  YS02001619           JUNCTION     15.81    15.81     0  03:01       0.197       0.197       2.832
  YS02001629           JUNCTION      0.00    21.08     0  03:00           0       0.148      13.265
  YS02001641           JUNCTION      0.00    44.90     0  03:01           0       0.289       7.504
  YS02001644           JUNCTION     17.05    60.84     0  03:01        0.22       0.483       5.462
  YS02001652           JUNCTION      0.00    25.81     0  02:54           0       0.236       8.772
  YS02001655           JUNCTION      0.15    22.28     0  03:01     0.00434       0.247       5.645
  YS02001920           JUNCTION      2.87    10.03     0  03:04      0.0809        0.19       0.752
  YS02001923           JUNCTION      0.04     7.17     0  03:03     0.00106       0.109       0.139
  YS02001926           JUNCTION      0.05     7.17     0  03:01     0.00147       0.109       1.043
  YS02001929           JUNCTION      7.12     7.12     0  03:01       0.108       0.108       0.128
  YS02001658           JUNCTION      0.00    22.14     0  03:01           0       0.247       1.811
  YS02001661           JUNCTION      0.00    22.14     0  03:01           0       0.239       0.256
  YS02001664           JUNCTION     22.15    22.15     0  03:01       0.239       0.239       0.050
  YS02001622           JUNCTION      0.00    17.17     0  03:01           0       0.191       8.940
  YS02001633           JUNCTION     17.40    41.51     0  03:02       0.229       0.344       9.654
  YS02001649           JUNCTION      0.00    81.13     0  03:00           0       0.639       5.979
  YS02001757           JUNCTION      0.00   132.63     0  03:09           0        1.23       8.132
  YS02001895           JUNCTION      0.00    31.23     0  03:01           0       0.322       0.772
  YS02001625           JUNCTION      0.00    20.38     0  03:01           0       0.176      20.449
  YS02163301           JUNCTION      0.00    23.89     0  03:02           0       0.138      18.770
  YS02163601           JUNCTION      0.11    44.81     0  03:01      0.0031       0.313      10.390
  YS02164001           JUNCTION      0.00    43.30     0  03:02           0       0.293       6.898
  YS02001647           JUNCTION      0.00    61.16     0  03:01           0       0.447       5.585
  YSB1154              JUNCTION      3.27     3.27     0  02:28      0.0168      0.0183       8.560
  YSB6556              JUNCTION      0.00     3.23     0  02:31           0      0.0194       6.831
  YSB1174              JUNCTION      3.20     3.20     0  02:22      0.0124      0.0135      10.524
  YSB1171              JUNCTION      0.00     5.97     0  02:34           0      0.0385      19.641
  YS02006553           JUNCTION      0.00    57.22     0  03:06           0       0.683       1.968
  YS02006561           JUNCTION      0.00    83.44     0  03:04           0       0.952       0.041
  YS02006556           JUNCTION      0.00    57.29     0  03:06           0       0.684       1.396
  YS02006558           JUNCTION     27.02    83.45     0  03:04       0.312       0.975       0.416
  YS02001783           JUNCTION      0.00    83.44     0  03:04           0       0.952       0.096
  YS02001784           JUNCTION      1.06    84.49     0  03:04      0.0299       0.981       0.162
  YS02001786           JUNCTION      0.06    84.54     0  03:05     0.00159       0.981       0.162
  YS02001788           JUNCTION      0.07    84.61     0  03:05       0.002       0.981       0.088
  YS02001790           JUNCTION      0.15    84.76     0  03:06     0.00437       0.985       0.113
  YS02001791           JUNCTION      0.00    84.75     0  03:06           0       0.983       0.054
  YS02001793           JUNCTION      0.00   151.15     0  02:52           0       0.995       0.089
  WS02004139           JUNCTION      0.32   286.29     0  06:55     0.00905        5.82       0.522
  WSC                  OUTFALL       0.00   420.64     0  03:35           0        7.43       0.000
  3                    OUTFALL       0.00   238.57     0  02:51           0       0.456       0.000
  4                    OUTFALL       0.00     0.00     0  00:00           0           0       0.000 ltr
  5                    OUTFALL       0.00     0.00     0  00:00           0           0       0.000 ltr
  JK-storage           STORAGE       0.00   380.70     0  02:53           0        1.14       0.470
  CC-storage           STORAGE       0.00   112.59     0  03:14           0        1.09       2.124
  XR-storage           STORAGE     229.77   229.77     0  03:01        6.01        6.61       0.000
  
  
  **********************
  Node Surcharge Summary
  **********************
  
  Surcharging occurs when water rises above the top of the highest conduit.
  ---------------------------------------------------------------------
                                               Max. Height   Min. Depth
                                   Hours       Above Crown    Below Rim
  Node                 Type      Surcharged         Meters       Meters
  ---------------------------------------------------------------------
  YS02001759           JUNCTION        0.47          0.021        1.189
  YS02001757           JUNCTION        2.31          0.125        1.085
  
  
  *********************
  Node Flooding Summary
  *********************
  
  No nodes were flooded.
  
  
  **********************
  Storage Volume Summary
  **********************
  
  --------------------------------------------------------------------------------------------------
                         Average     Avg  Evap Exfil       Maximum     Max    Time of Max    Maximum
                          Volume    Pcnt  Pcnt  Pcnt        Volume    Pcnt     Occurrence    Outflow
  Storage Unit           1000 m3    Full  Loss  Loss       1000 m3    Full    days hr:min        LPS
  --------------------------------------------------------------------------------------------------
  JK-storage               0.189      65     0     0         0.229      79       0  04:06     372.04
  CC-storage               0.427       3     0     0         1.072       7       0  07:50       0.00
  XR-storage               0.792      86     0     0         0.840      91       0  05:35     285.00
  
  
  ***********************
  Outfall Loading Summary
  ***********************
  
  -----------------------------------------------------------
                         Flow       Avg       Max       Total
                         Freq      Flow      Flow      Volume
  Outfall Node           Pcnt       LPS       LPS    10^6 ltr
  -----------------------------------------------------------
  WSC                   99.99    283.63    420.64       7.434
  3                     40.52    148.12    238.57       0.456
  4                      0.00      0.00      0.00       0.000
  5                      0.00      0.00      0.00       0.000
  -----------------------------------------------------------
  System                35.13    431.75    652.76       7.890
  
  
  ********************
  Link Flow Summary
  ********************
  
  -----------------------------------------------------------------------------
                                 Maximum  Time of Max   Maximum    Max/    Max/
                                  |Flow|   Occurrence   |Veloc|    Full    Full
  Link                 Type          LPS  days hr:min     m/sec    Flow   Depth
  -----------------------------------------------------------------------------
  WS02003066WSF200     CONDUIT    120.97     0  03:10      1.89    0.02    0.11
  WS02006287WS02006284 CONDUIT     58.88     0  02:36      1.03    0.03    0.13
  WS02006284WS02006280 CONDUIT     58.97     0  02:37      1.28    0.02    0.11
  WS02006280WS02006229 CONDUIT     58.97     0  02:37      2.05    0.01    0.08
  WS02006229WS02006228 CONDUIT    176.16     0  02:58      0.50    0.58    0.66
  WS02006256WS02006235 CONDUIT    166.34     0  02:51      2.56    1.76    1.00
  WS02006253WS02006251 CONDUIT      9.64     0  02:35      0.29    0.03    0.14
  WS02006252WS02006251 CONDUIT      0.00     0  00:00      0.00    0.00    0.00
  WS02006251WS02006249 CONDUIT      9.70     0  02:36      0.31    0.03    0.13
  WS02006249WS02006248 CONDUIT      9.68     0  02:39      0.38    0.05    0.12
  WS02006248WS02006247 CONDUIT      9.68     0  02:39      0.39    0.02    0.12
  WS02006247WS02006245 CONDUIT      9.67     0  02:40      0.34    0.08    0.13
  WS02006245WS02006243 CONDUIT      9.95     0  02:55      0.45    0.03    0.13
  WS02006243WS02006242 CONDUIT     19.86     0  02:59      0.35    0.04    0.24
  WS02006242WS02006240 CONDUIT     33.85     0  02:59      0.50    0.13    0.35
  WS02006240WS02006239 CONDUIT     46.17     0  02:58      0.57    0.15    0.36
  WS02006239WS02006238 CONDUIT     76.20     0  02:58      0.66    0.24    0.48
  WS02006238WS02006235 CONDUIT    106.37     0  02:58      1.11    0.24    0.53
  WS02006235WS02006234 CONDUIT    138.67     0  02:57      0.93    1.46    0.47
  WS02006234WS02006232 CONDUIT    135.84     0  02:57      0.86    0.27    0.55
  WS02006232WS02006231 CONDUIT    129.68     0  02:57      0.62    0.27    0.53
  WS02006231WS02006230 CONDUIT    119.95     0  02:58      0.90    1.82    0.38
  WS02006230WS02006229 CONDUIT    128.67     0  02:58      0.52    2.86    0.68
  WS02006228WS02006109 CONDUIT    172.42     0  02:58      0.46    0.75    0.70
  WS02006116WS02004401 CONDUIT    147.95     0  03:01      0.39    0.20    0.49
  WS02006115WS02006116 CONDUIT    152.63     0  03:00      0.54    0.20    0.40
  WS02006113WS02006111 CONDUIT    161.27     0  02:59      1.66    0.19    0.25
  WS02006112WS02006115 CONDUIT    157.78     0  03:00      0.40    0.09    0.51
  WS02006111WS02006112 CONDUIT    159.88     0  03:00      0.66    0.08    0.49
  WS02006110WS02006113 CONDUIT    162.92     0  02:59      0.61    0.15    0.53
  WS02006109WS02006110 CONDUIT    168.04     0  02:59      0.46    0.32    0.68
  WS02004411WS02004412 CONDUIT    122.48     0  03:07      0.61    0.17    0.38
  WS02004401WS02004402 CONDUIT    143.56     0  03:01      0.35    0.17    0.53
  WS02004413WS02003067 CONDUIT    120.99     0  03:09      0.48    0.05    0.36
  WS02004412WS02004413 CONDUIT    121.26     0  03:09      0.57    0.08    0.48
  WS02004410WS02004411 CONDUIT    123.83     0  03:04      0.53    0.17    0.35
  WS02004409WS02004410 CONDUIT    127.17     0  03:03      0.61    0.16    0.32
  WS02004407WS02004409 CONDUIT    129.46     0  03:03      1.00    0.05    0.22
  WS02004406WS02004407 CONDUIT    130.10     0  03:02      0.43    0.06    0.41
  WS02004405WS02004406 CONDUIT    132.57     0  03:02      0.24    0.26    0.66
  WS02004404WS02004405 CONDUIT    135.23     0  03:02      0.29    1.32    0.65
  WS02004403WS02004404 CONDUIT    137.14     0  03:01      0.36    0.10    0.61
  WS02004402WS02004403 CONDUIT    140.15     0  03:01      0.40    0.20    0.56
  WS02004139WS02001211 CONDUIT    287.22     0  05:37      0.54    0.36    0.51
  WS02004138WS02004139 CONDUIT    285.97     0  06:55      2.39    0.06    0.37
  WS02003067WS02003066 CONDUIT    120.98     0  03:10      0.51    0.04    0.26
  WS02001213WS02003059 CONDUIT    292.98     0  03:38      0.59    0.48    0.62
  WS02001212WS02001213 CONDUIT    292.67     0  03:38      1.19    0.45    0.35
  WS02001211WS02001212 CONDUIT    292.67     0  03:37      0.67    0.22    0.54
  WS02003072WS02003073 CONDUIT    418.91     0  03:34      1.30    0.90    0.33
  WS02003069WS02003072 CONDUIT    418.96     0  03:34      1.25    0.20    0.34
  WS02003060WS02003069 CONDUIT    418.68     0  03:33      1.53    0.16    0.29
  WS02003059WS02003060 CONDUIT    293.63     0  03:39      0.82    0.19    0.50
  HS02004901HS02004770 CONDUIT      2.51     0  02:31      0.02    0.01    0.20
  HS02004876HS02004881 CONDUIT      8.32     0  02:36      0.25    0.09    0.05
  HS02004870HS02004876 CONDUIT      6.55     0  02:34      0.18    0.00    0.05
  HS02004842HS02004848 CONDUIT      2.00     0  02:43      0.01    0.00    0.25
  HS02004837HS02004842 CONDUIT      4.49     0  00:03      0.42    0.00    0.26
  HS02004830HS02004837 CONDUIT     11.52     0  02:31      0.32    0.01    0.05
  HS02004824HS02004830 CONDUIT     11.67     0  02:33      0.37    0.02    0.05
  HS02004817HS02004824 CONDUIT     15.47     0  02:36      0.17    0.01    0.34
  HS02004770HS02004777 CONDUIT     12.89     0  02:31      0.08    0.02    0.22
  HS02004799HS02004480 CONDUIT     33.49     0  02:34      0.28    0.04    0.17
  HS02004792HS02004799 CONDUIT     30.71     0  02:33      0.33    0.02    0.13
  HS02004788HS02004792 CONDUIT     18.22     0  02:36      0.51    0.01    0.05
  HS02004785HS02004788 CONDUIT     12.76     0  02:36      0.27    0.10    0.07
  HS02004777HS02004785 CONDUIT     12.67     0  02:34      0.11    0.02    0.17
  HS02004480HS02004478 CONDUIT     39.35     0  02:35      0.54    0.17    0.10
  HS02004479HS02004480 CONDUIT      5.95     0  02:38      0.15    0.01    0.17
  HS02004862HS02004870 CONDUIT      4.63     0  02:36      0.26    0.01    0.03
  HS02004848HS02004852 CONDUIT      1.42     0  02:34      0.16    0.00    0.01
  HS02004856HS02004862 CONDUIT      2.83     0  02:35      0.18    0.00    0.02
  HS02004852HS02004856 CONDUIT      1.41     0  02:37      0.03    0.00    0.07
  HS02004802HS02004478 CONDUIT     19.60     0  02:39      0.17    0.02    0.17
  HS02004478WS02006287 CONDUIT     58.88     0  02:36      0.74    0.02    0.09
  HS02004817HS02004807 CONDUIT     16.11     0  02:40      0.06    0.01    0.42
  HS02004807HS02004802 CONDUIT     19.57     0  02:37      0.19    0.04    0.21
  YS02001759YS02001757 CONDUIT     50.97     0  03:05      0.12    0.04    1.00
  YS02001762YS02001759 CONDUIT     29.11     0  03:14      0.17    0.03    0.99
  YS02001765YS02001762 CONDUIT     28.19     0  02:56      0.22    0.03    0.96
  YS02001770YS02001767 CONDUIT     29.83     0  02:57      0.25    0.12    0.89
  YS02001774YS02001770 CONDUIT     13.60     0  02:52      0.12    0.01    0.91
  YS02001779YS02001774 CONDUIT      7.76     0  05:12      0.03    0.00    0.83
  YS02001649YS02001757 CONDUIT     75.11     0  03:00      0.12    0.05    1.00
  YS02001767YS02001765 CONDUIT     29.62     0  02:56      0.25    0.04    0.92
  YS02006561YS02001783 CONDUIT     83.44     0  03:04      1.26    0.04    0.19
  YS02001783YS02001784 CONDUIT     83.43     0  03:04      0.81    0.12    0.26
  YS02001784YS02001785 CONDUIT     84.48     0  03:05      0.81    0.20    0.26
  YS02001788YS02001790 CONDUIT     84.60     0  03:06      1.30    0.06    0.19
  YS02001790YS02001791 CONDUIT     84.75     0  03:06      1.52    0.09    0.17
  YS02001791YS02001793 CONDUIT     90.76     0  03:07      2.92    0.04    0.41
  YS02001910YS02001907 CONDUIT     26.13     0  03:05      0.49    0.01    0.54
  YS02001786YS02001788 CONDUIT     84.53     0  03:05      1.14    0.16    0.20
  YS02001915YS02001910 CONDUIT     26.14     0  03:01      0.44    0.01    0.33
  YS02001918YS02001915 CONDUIT     10.02     0  03:06      0.44    0.01    0.14
  YS02001923YS02001920 CONDUIT      7.16     0  03:04      0.21    0.00    0.09
  YS02001926YS02001923 CONDUIT      7.13     0  03:03      0.28    0.01    0.07
  YS02001929YS02001926 CONDUIT      7.11     0  03:01      0.28    0.00    0.07
  YS02001920YS02001918 CONDUIT     10.03     0  03:05      0.27    0.01    0.09
  YS02001629YS02163301 CONDUIT     23.89     0  03:02      0.07    0.03    0.85
  YS02001619YS02001622 CONDUIT     17.17     0  03:01      0.44    0.03    0.47
  YS02001622YS02001625 CONDUIT     20.38     0  03:01      0.14    0.01    0.63
  YS02001625YS02001629 CONDUIT     21.08     0  03:00      0.11    0.01    0.62
  YS02163301YS02001633 CONDUIT     24.22     0  03:02      0.06    0.02    0.90
  YS02163601YS02164001 CONDUIT     43.30     0  03:02      0.08    0.04    0.96
  YS02164001YS02001641 CONDUIT     44.90     0  03:01      0.09    0.06    0.94
  YS02001641YS02001644 CONDUIT     43.81     0  03:01      0.09    0.14    0.95
  YS02001647YS02001649 CONDUIT     57.39     0  03:01      0.13    0.03    0.89
  YS02006553YS02006556 CONDUIT     57.29     0  03:06      0.18    0.05    0.62
  YS02006556YS02006558 CONDUIT     57.33     0  03:06      0.11    0.05    0.65
  YSB6556YSB1171       CONDUIT      3.23     0  02:37      0.03    0.00    0.44
  YS02001907YS02006553 CONDUIT     57.22     0  03:06      0.09    0.07    0.71
  YS02006558YS02006561 CONDUIT     83.44     0  03:04      1.60    0.18    0.24
  YS02001633YS02163601 CONDUIT     44.70     0  03:01      0.09    0.05    0.95
  YS02001644YS02001647 CONDUIT     61.16     0  03:01      0.14    0.04    0.86
  YS02001745YS02001748 CONDUIT     17.96     0  03:01      0.95    0.01    0.13
  YS02001748YS02001751 CONDUIT     24.32     0  06:43      0.78    0.01    0.41
  YS02001751YS02001754 CONDUIT     34.72     0  04:42      0.72    0.02    0.62
  YS02001754YS02001757 CONDUIT     47.56     0  04:42      0.33    0.02    0.89
  YS02001882YS02001884 CONDUIT      1.25     0  02:12      0.05    0.00    0.26
  YS02001884YS02001887 CONDUIT      3.92     0  02:11      0.04    0.01    0.35
  YS02001890YS02001895 CONDUIT     31.23     0  03:01      0.14    0.01    0.33
  YS02001895YS02001898 CONDUIT     31.15     0  03:01      0.34    0.05    0.19
  YS02001898YS02001901 CONDUIT     31.15     0  03:04      0.18    0.02    0.27
  YS02001901YS02001904 CONDUIT     31.09     0  03:03      0.18    0.05    0.32
  YS02001904YS02001907 CONDUIT     31.11     0  03:04      0.08    0.01    0.48
  YS02001887YS02001890 CONDUIT     31.40     0  03:01      0.10    0.05    0.41
  YS02001652YS02001649 CONDUIT     26.08     0  03:00      0.21    0.01    0.89
  YS02001655YS02001652 CONDUIT     25.81     0  02:54      0.78    0.01    0.65
  YS02001658YS02001655 CONDUIT     22.13     0  03:01      0.88    0.01    0.39
  YS02001661YS02001658 CONDUIT     22.14     0  03:01      0.97    0.01    0.14
  YS02001664YS02001661 CONDUIT     22.14     0  03:01      0.56    0.01    0.10
  YSB1154YSB6556       CONDUIT      3.23     0  02:31      0.19    0.01    0.33
  YSB1174YSB1171       CONDUIT      3.01     0  02:23      0.02    0.00    0.45
  YSB1171HS02004479    CONDUIT      5.91     0  02:36      0.54    0.00    0.33
  HS02004881HS02006253 CONDUIT      9.37     0  02:35      0.95    0.00    0.01
  YS02001793JiankangQianchi CONDUIT    380.70     0  02:53      0.84    0.03    0.78
  YS02001757CaochengTiaoxuchi CONDUIT    112.59     0  03:14      0.37    0.05    0.69
  WSF200WS02003060     CONDUIT    120.95     0  03:10      0.88    0.03    0.19
  1                    CONDUIT    420.64     0  03:35      2.61    0.15    0.26
  2                    CONDUIT      0.00     0  00:00      0.00    0.00    0.00
  3                    CONDUIT    238.57     0  02:51      8.27    0.38    0.45
  4                    CONDUIT      0.00     0  00:00      0.00    0.00    0.00
  CC-Pump-1            PUMP         0.00     0  00:00              0.00
  CC-Pump-2            PUMP         0.00     0  00:00              0.00
  JK-Pump-1            PUMP       300.00     0  02:50              1.00
  JK-Pump-2            PUMP         0.00     0  00:00              0.00
  XR-Pump-1            PUMP        95.00     0  00:00              1.00
  XR-Pump-2            PUMP        95.00     0  00:25              1.00
  XR-Pump-3            PUMP        95.00     0  02:17              1.00
  XR-Pump-4            PUMP         0.00     0  00:00              0.00
  
  
  ***************************
  Flow Classification Summary
  ***************************
  
  -------------------------------------------------------------------------------------
                      Adjusted    ---------- Fraction of Time in Flow Class ---------- 
                       /Actual         Up    Down  Sub   Sup   Up    Down  Norm  Inlet 
  Conduit               Length    Dry  Dry   Dry   Crit  Crit  Crit  Crit  Ltd   Ctrl  
  -------------------------------------------------------------------------------------
  WS02003066WSF200        1.00   0.21  0.00  0.00  0.00  0.79  0.00  0.00  0.66  0.00
  WS02006287WS02006284    1.00   0.06  0.05  0.00  0.69  0.20  0.00  0.00  0.81  0.00
  WS02006284WS02006280    1.00   0.08  0.00  0.00  0.00  0.00  0.00  0.92  0.00  0.00
  WS02006280WS02006229    1.00   0.08  0.00  0.00  0.00  0.00  0.00  0.92  0.00  0.00
  WS02006229WS02006228    1.00   0.00  0.00  0.00  0.99  0.00  0.00  0.01  0.00  0.00
  WS02006256WS02006235    1.00   0.13  0.00  0.00  0.78  0.09  0.00  0.00  0.06  0.00
  WS02006253WS02006251    1.00   0.03  0.04  0.00  0.93  0.00  0.01  0.00  0.00  0.00
  WS02006252WS02006251    1.00   1.00  0.00  0.00  0.00  0.00  0.00  0.00  0.00  0.00
  WS02006251WS02006249    1.00   0.00  0.00  0.00  1.00  0.00  0.00  0.00  0.98  0.00
  WS02006249WS02006248    1.00   0.00  0.01  0.00  0.00  0.00  0.99  0.00  0.00  0.00
  WS02006248WS02006247    1.00   0.01  0.00  0.00  0.96  0.00  0.00  0.03  0.87  0.00
  WS02006247WS02006245    1.00   0.01  0.00  0.00  0.93  0.00  0.00  0.05  0.00  0.00
  WS02006245WS02006243    1.00   0.02  0.00  0.00  0.78  0.00  0.00  0.20  0.08  0.00
  WS02006243WS02006242    1.00   0.02  0.00  0.00  0.90  0.00  0.00  0.07  0.70  0.00
  WS02006242WS02006240    1.00   0.03  0.07  0.00  0.89  0.00  0.01  0.00  0.00  0.00
  WS02006240WS02006239    1.00   0.10  0.00  0.00  0.55  0.00  0.00  0.34  0.07  0.00
  WS02006239WS02006238    1.00   0.10  0.00  0.00  0.87  0.00  0.00  0.02  0.18  0.00
  WS02006238WS02006235    1.00   0.11  0.02  0.00  0.87  0.00  0.00  0.00  0.00  0.00
  WS02006235WS02006234    1.00   0.14  0.01  0.00  0.62  0.00  0.22  0.00  0.00  0.00
  WS02006234WS02006232    1.00   0.15  0.00  0.00  0.85  0.00  0.00  0.00  0.05  0.00
  WS02006232WS02006231    1.00   0.16  0.04  0.00  0.74  0.00  0.06  0.00  0.00  0.00
  WS02006231WS02006230    1.00   0.20  0.00  0.00  0.00  0.00  0.80  0.00  0.00  0.00
  WS02006230WS02006229    1.00   0.00  0.00  0.00  0.98  0.00  0.00  0.02  0.04  0.00
  WS02006228WS02006109    1.00   0.00  0.00  0.00  1.00  0.00  0.00  0.00  0.00  0.00
  WS02006116WS02004401    1.00   0.06  0.00  0.00  0.94  0.00  0.00  0.00  0.01  0.00
  WS02006115WS02006116    1.00   0.06  0.00  0.00  0.88  0.00  0.00  0.06  0.00  0.00
  WS02006113WS02006111    1.00   0.04  0.00  0.00  0.02  0.95  0.00  0.00  0.03  0.00
  WS02006112WS02006115    1.00   0.04  0.02  0.00  0.94  0.00  0.00  0.00  0.00  0.00
  WS02006111WS02006112    1.00   0.04  0.00  0.00  0.95  0.00  0.00  0.01  0.92  0.00
  WS02006110WS02006113    1.00   0.01  0.03  0.00  0.96  0.00  0.00  0.00  0.00  0.00
  WS02006109WS02006110    1.00   0.00  0.01  0.00  0.99  0.00  0.01  0.00  0.00  0.00
  WS02004411WS02004412    1.00   0.17  0.00  0.00  0.83  0.00  0.00  0.00  0.00  0.00
  WS02004401WS02004402    1.00   0.06  0.00  0.00  0.94  0.00  0.00  0.00  0.04  0.00
  WS02004413WS02003067    1.00   0.17  0.03  0.00  0.00  0.00  0.80  0.00  0.00  0.00
  WS02004412WS02004413    1.00   0.17  0.00  0.00  0.83  0.00  0.00  0.00  0.01  0.00
  WS02004410WS02004411    1.00   0.16  0.00  0.00  0.84  0.00  0.00  0.00  0.00  0.00
  WS02004409WS02004410    1.00   0.16  0.00  0.00  0.84  0.00  0.00  0.00  0.00  0.00
  WS02004407WS02004409    1.00   0.16  0.00  0.00  0.83  0.01  0.00  0.00  0.71  0.00
  WS02004406WS02004407    1.00   0.00  0.16  0.00  0.84  0.00  0.00  0.00  0.00  0.00
  WS02004405WS02004406    1.00   0.00  0.00  0.00  1.00  0.00  0.00  0.00  0.04  0.00
  WS02004404WS02004405    1.00   0.00  0.00  0.00  1.00  0.00  0.00  0.00  0.01  0.00
  WS02004403WS02004404    1.00   0.00  0.07  0.00  0.93  0.00  0.00  0.00  0.04  0.00
  WS02004402WS02004403    1.00   0.06  0.00  0.00  0.94  0.00  0.00  0.00  0.00  0.00
  WS02004139WS02001211    1.00   0.00  0.00  0.00  1.00  0.00  0.00  0.00  0.00  0.00
  WS02004138WS02004139    1.00   0.00  0.00  0.00  0.99  0.00  0.00  0.00  1.00  0.00
  WS02003067WS02003066    1.00   0.20  0.01  0.00  0.79  0.00  0.00  0.00  0.00  0.00
  WS02001213WS02003059    1.00   0.00  0.00  0.00  1.00  0.00  0.00  0.00  0.00  0.00
  WS02001212WS02001213    1.00   0.00  0.00  0.00  0.00  0.00  1.00  0.00  0.00  0.00
  WS02001211WS02001212    1.00   0.00  0.00  0.00  1.00  0.00  0.00  0.00  0.00  0.00
  WS02003072WS02003073    1.00   0.00  0.00  0.00  0.00  0.00  0.00  1.00  0.00  0.00
  WS02003069WS02003072    1.00   0.00  0.00  0.00  1.00  0.00  0.00  0.00  0.91  0.00
  WS02003060WS02003069    1.00   0.00  0.00  0.00  0.99  0.01  0.00  0.00  0.50  0.00
  WS02003059WS02003060    1.00   0.00  0.00  0.00  1.00  0.00  0.00  0.00  0.02  0.00
  HS02004901HS02004770    1.00   0.07  0.00  0.00  0.92  0.00  0.00  0.00  0.03  0.00
  HS02004876HS02004881    1.00   0.01  0.00  0.00  0.99  0.00  0.00  0.00  0.00  0.00
  HS02004870HS02004876    1.00   0.00  0.00  0.00  0.99  0.00  0.00  0.00  0.95  0.00
  HS02004842HS02004848    1.00   0.00  0.08  0.00  0.92  0.00  0.00  0.00  0.74  0.00
  HS02004837HS02004842    1.00   0.00  0.00  0.00  1.00  0.00  0.00  0.00  0.11  0.00
  HS02004830HS02004837    1.00   0.00  0.00  0.00  1.00  0.00  0.00  0.00  0.99  0.00
  HS02004824HS02004830    1.00   0.00  0.00  0.00  1.00  0.00  0.00  0.00  0.00  0.00
  HS02004817HS02004824    1.00   0.00  0.00  0.00  1.00  0.00  0.00  0.00  1.00  0.00
  HS02004770HS02004777    1.00   0.00  0.08  0.00  0.92  0.00  0.00  0.00  0.08  0.00
  HS02004799HS02004480    1.00   0.00  0.02  0.00  0.88  0.00  0.10  0.00  0.00  0.00
  HS02004792HS02004799    1.00   0.00  0.00  0.00  0.99  0.01  0.00  0.00  0.98  0.00
  HS02004788HS02004792    1.00   0.00  0.00  0.00  0.99  0.01  0.00  0.00  0.98  0.00
  HS02004785HS02004788    1.00   0.00  0.00  0.00  1.00  0.00  0.00  0.00  0.00  0.00
  HS02004777HS02004785    1.00   0.00  0.00  0.00  1.00  0.00  0.00  0.00  0.23  0.00
  HS02004480HS02004478    1.00   0.09  0.00  0.00  0.69  0.00  0.00  0.22  0.00  0.00
  HS02004479HS02004480    1.00   0.02  0.00  0.00  0.98  0.00  0.00  0.00  0.17  0.00
  HS02004862HS02004870    1.00   0.00  0.00  0.00  1.00  0.00  0.00  0.00  0.06  0.00
  HS02004848HS02004852    1.00   0.08  0.00  0.00  0.92  0.00  0.00  0.00  0.67  0.00
  HS02004856HS02004862    1.00   0.00  0.16  0.00  0.84  0.00  0.00  0.00  0.72  0.00
  HS02004852HS02004856    1.00   0.08  0.03  0.00  0.90  0.00  0.00  0.00  0.82  0.00
  HS02004802HS02004478    1.00   0.08  0.02  0.00  0.90  0.00  0.00  0.00  0.00  0.00
  HS02004478WS02006287    1.00   0.11  0.00  0.00  0.89  0.00  0.00  0.00  0.81  0.00
  HS02004817HS02004807    1.00   0.00  0.08  0.00  0.92  0.00  0.00  0.00  0.00  0.00
  HS02004807HS02004802    1.00   0.08  0.00  0.00  0.92  0.00  0.00  0.01  0.01  0.00
  YS02001759YS02001757    1.00   0.00  0.00  0.00  1.00  0.00  0.00  0.00  0.17  0.00
  YS02001762YS02001759    1.00   0.00  0.00  0.00  1.00  0.00  0.00  0.00  0.06  0.00
  YS02001765YS02001762    1.00   0.00  0.00  0.00  1.00  0.00  0.00  0.00  0.24  0.00
  YS02001770YS02001767    1.00   0.00  0.00  0.00  1.00  0.00  0.00  0.00  0.00  0.00
  YS02001774YS02001770    1.00   0.00  0.11  0.00  0.89  0.00  0.00  0.00  0.07  0.00
  YS02001779YS02001774    1.00   0.00  0.00  0.00  1.00  0.00  0.00  0.00  0.30  0.00
  YS02001649YS02001757    1.00   0.00  0.00  0.00  1.00  0.00  0.00  0.00  0.20  0.00
  YS02001767YS02001765    1.00   0.00  0.00  0.00  1.00  0.00  0.00  0.00  0.01  0.00
  YS02006561YS02001783    1.00   0.17  0.00  0.00  0.00  0.83  0.00  0.00  0.71  0.00
  YS02001783YS02001784    1.00   0.00  0.17  0.00  0.83  0.00  0.00  0.00  0.37  0.00
  YS02001784YS02001785    1.00   0.00  0.00  0.00  1.00  0.00  0.00  0.00  0.28  0.00
  YS02001788YS02001790    1.00   0.00  0.00  0.00  0.18  0.82  0.00  0.00  0.99  0.00
  YS02001790YS02001791    1.00   0.00  0.00  0.00  0.01  0.99  0.00  0.00  0.08  0.00
  YS02001791YS02001793    1.00   0.00  0.00  0.00  0.23  0.77  0.00  0.00  0.27  0.00
  YS02001910YS02001907    1.00   0.00  0.00  0.00  0.98  0.00  0.00  0.01  0.13  0.00
  YS02001786YS02001788    1.00   0.00  0.00  0.00  0.46  0.54  0.00  0.00  0.00  0.00
  YS02001915YS02001910    1.00   0.00  0.00  0.00  0.99  0.01  0.00  0.00  0.26  0.00
  YS02001918YS02001915    1.00   0.00  0.00  0.00  0.99  0.01  0.00  0.00  0.79  0.00
  YS02001923YS02001920    1.00   0.00  0.00  0.00  1.00  0.00  0.00  0.00  1.00  0.00
  YS02001926YS02001923    1.00   0.00  0.04  0.00  0.00  0.00  0.96  0.00  0.00  0.00
  YS02001929YS02001926    1.00   0.00  0.08  0.00  0.92  0.00  0.00  0.00  0.86  0.00
  YS02001920YS02001918    1.00   0.00  0.00  0.00  1.00  0.00  0.00  0.00  0.00  0.00
  YS02001629YS02163301    1.00   0.14  0.01  0.00  0.85  0.00  0.00  0.00  0.00  0.00
  YS02001619YS02001622    1.00   0.07  0.00  0.00  0.93  0.00  0.00  0.00  0.00  0.00
  YS02001622YS02001625    1.00   0.08  0.00  0.00  0.92  0.00  0.00  0.00  0.16  0.00
  YS02001625YS02001629    1.00   0.08  0.10  0.00  0.76  0.00  0.06  0.00  0.00  0.00
  YS02163301YS02001633    1.00   0.00  0.14  0.00  0.86  0.00  0.00  0.00  0.00  0.00
  YS02163601YS02164001    1.00   0.00  0.05  0.00  0.95  0.00  0.00  0.00  0.00  0.00
  YS02164001YS02001641    1.00   0.00  0.04  0.00  0.95  0.00  0.00  0.00  0.07  0.00
  YS02001641YS02001644    1.00   0.00  0.00  0.00  1.00  0.00  0.00  0.00  0.00  0.00
  YS02001647YS02001649    1.00   0.00  0.17  0.00  0.83  0.00  0.00  0.00  0.01  0.00
  YS02006553YS02006556    1.00   0.01  0.00  0.00  0.99  0.00  0.00  0.00  0.03  0.00
  YS02006556YS02006558    1.00   0.00  0.00  0.00  1.00  0.00  0.00  0.00  0.00  0.00
  YSB6556YSB1171          1.00   0.02  0.05  0.00  0.93  0.00  0.00  0.00  0.00  0.00
  YS02001907YS02006553    1.00   0.00  0.01  0.00  0.99  0.00  0.00  0.00  0.00  0.00
  YS02006558YS02006561    1.00   0.16  0.00  0.00  0.00  0.83  0.00  0.00  0.68  0.00
  YS02001633YS02163601    1.00   0.00  0.00  0.00  1.00  0.00  0.00  0.00  0.20  0.00
  YS02001644YS02001647    1.00   0.00  0.17  0.00  0.83  0.00  0.00  0.00  0.00  0.00
  YS02001745YS02001748    1.00   0.00  0.00  0.00  0.36  0.02  0.00  0.61  0.40  0.00
  YS02001748YS02001751    1.00   0.00  0.00  0.00  0.90  0.10  0.00  0.00  0.39  0.00
  YS02001751YS02001754    1.00   0.00  0.00  0.00  0.81  0.00  0.00  0.19  0.04  0.00
  YS02001754YS02001757    1.00   0.00  0.00  0.00  1.00  0.00  0.00  0.00  0.29  0.00
  YS02001882YS02001884    1.00   0.12  0.01  0.00  0.86  0.00  0.00  0.00  0.00  0.00
  YS02001884YS02001887    1.00   0.03  0.03  0.00  0.94  0.00  0.00  0.00  0.00  0.00
  YS02001890YS02001895    1.00   0.00  0.14  0.00  0.85  0.00  0.00  0.00  0.00  0.00
  YS02001895YS02001898    1.00   0.15  0.00  0.00  0.83  0.00  0.02  0.00  0.00  0.00
  YS02001898YS02001901    1.00   0.13  0.02  0.00  0.85  0.00  0.00  0.00  0.02  0.00
  YS02001901YS02001904    1.00   0.13  0.00  0.00  0.87  0.00  0.00  0.00  0.00  0.00
  YS02001904YS02001907    1.00   0.00  0.13  0.00  0.87  0.00  0.00  0.00  0.00  0.00
  YS02001887YS02001890    1.00   0.00  0.00  0.00  0.98  0.00  0.02  0.00  0.00  0.00
  YS02001652YS02001649    1.00   0.00  0.00  0.00  1.00  0.00  0.00  0.00  0.29  0.00
  YS02001655YS02001652    1.00   0.00  0.00  0.00  0.81  0.00  0.00  0.18  0.05  0.00
  YS02001658YS02001655    1.00   0.00  0.12  0.00  0.78  0.10  0.00  0.00  0.38  0.00
  YS02001661YS02001658    1.00   0.12  0.00  0.00  0.38  0.50  0.00  0.00  0.74  0.00
  YS02001664YS02001661    1.00   0.07  0.00  0.00  0.93  0.00  0.00  0.00  0.86  0.00
  YSB1154YSB6556          1.00   0.07  0.00  0.00  0.93  0.00  0.00  0.00  0.02  0.00
  YSB1174YSB1171          1.00   0.03  0.02  0.00  0.95  0.00  0.00  0.00  0.00  0.00
  YSB1171HS02004479       1.00   0.02  0.00  0.00  0.97  0.00  0.00  0.01  0.13  0.00
  HS02004881HS02006253    1.00   0.03  0.00  0.00  0.00  0.00  0.00  0.97  0.00  0.00
  YS02001793JiankangQianchi    1.00   0.00  0.00  0.00  1.00  0.00  0.00  0.00  0.71  0.00
  YS02001757CaochengTiaoxuchi    1.00   0.00  0.25  0.00  0.75  0.00  0.00  0.00  0.00  0.00
  WSF200WS02003060        1.00   0.00  0.21  0.00  0.79  0.00  0.00  0.00  0.66  0.00
  1                       1.00   0.00  0.00  0.00  0.00  1.00  0.00  0.00  0.19  0.00
  2                       1.00   1.00  0.00  0.00  0.00  0.00  0.00  0.00  0.00  0.00
  3                       1.00   0.59  0.00  0.00  0.00  0.40  0.00  0.00  0.00  0.00
  4                       1.00   1.00  0.00  0.00  0.00  0.00  0.00  0.00  0.00  0.00
  
  
  *************************
  Conduit Surcharge Summary
  *************************
  
  ----------------------------------------------------------------------------
                                                           Hours        Hours 
                         --------- Hours Full --------   Above Full   Capacity
  Conduit                Both Ends  Upstream  Dnstream   Normal Flow   Limited
  ----------------------------------------------------------------------------
  WS02006256WS02006235        0.51      0.52      4.25      0.86         0.01
  WS02006235WS02006234        0.01      0.01      0.01      0.61         0.01
  WS02006231WS02006230        0.01      0.01      0.01      0.67         0.01
  WS02006230WS02006229        0.01      0.01      0.01      1.59         0.01
  WS02004404WS02004405        0.01      0.01      0.01      0.38         0.01
  YS02001759YS02001757        0.47      0.47      2.31      0.01         0.01
  YS02001762YS02001759        0.01      0.01      0.47      0.01         0.01
  YS02001649YS02001757        0.01      0.01      2.31      0.01         0.01
  YS02001754YS02001757        0.01      0.01      2.31      0.01         0.01
  YS02001793JiankangQianchi        0.01      0.01      7.82      0.01         0.01
  YS02001757CaochengTiaoxuchi        0.01      0.01      2.31      0.01         0.01
  
  
  ***************
  Pumping Summary
  ***************
  
  ---------------------------------------------------------------------------------------------------------
                                                  Min       Avg       Max     Total     Power    % Time Off
                        Percent   Number of      Flow      Flow      Flow    Volume     Usage    Pump Curve
  Pump                 Utilized   Start-Ups       LPS       LPS       LPS  10^6 ltr     Kw-hr    Low   High
  ---------------------------------------------------------------------------------------------------------
  CC-Pump-1                0.00           0      0.00      0.00      0.00     0.000      0.00    0.0    0.0
  CC-Pump-2                0.00           0      0.00      0.00      0.00     0.000      0.00    0.0    0.0
  JK-Pump-1               11.20           9      0.00    300.00    300.00     0.947      8.45    0.0    0.0
  JK-Pump-2                0.00           0      0.00      0.00      0.00     0.000      0.00    0.0    0.0
  XR-Pump-1              100.00           1      0.00     95.00     95.00     2.679     20.50    0.0    0.0
  XR-Pump-2               94.70           1      0.00     95.00     95.00     2.537     19.07    0.0    0.0
  XR-Pump-3               22.33           5      0.00     95.00     95.00     0.598      4.50    0.0    0.0
  XR-Pump-4                0.00           0      0.00      0.00      0.00     0.000      0.00    0.0    0.0
  

  Analysis begun on:  Thu Jan  6 00:35:35 2022
  Analysis ended on:  Thu Jan  6 00:35:36 2022
  Total elapsed time: 00:00:01