
  EPA STORM WATER MANAGEMENT MODEL - VERSION 5.1 (Build 5.3.0.dev0)
  --------------------------------------------------------------

  WARNING 04: minimum elevation drop used for Conduit WS02004404WS02004405
  WARNING 03: negative offset ignored for Link YS02001904YS02001907
  
  *********************************************************
  NOTE: The summary statistics displayed in this report are
  based on results found at every computational time step,  
  not just on results from each reporting time step.
  *********************************************************
  
  ****************
  Analysis Options
  ****************
  Flow Units ............... LPS
  Process Models:
    Rainfall/Runoff ........ YES
    RDII ................... NO
    Snowmelt ............... NO
    Groundwater ............ NO
    Flow Routing ........... YES
    Ponding Allowed ........ NO
    Water Quality .......... NO
  Infiltration Method ...... HORTON
  Flow Routing Method ...... DYNWAVE
  Surcharge Method ......... EXTRAN
  Starting Date ............ 08/28/2015 08:00:00
  Ending Date .............. 08/28/2015 15:50:00
  Antecedent Dry Days ...... 8.0
  Report Time Step ......... 00:01:00
  Wet Time Step ............ 00:01:00
  Dry Time Step ............ 00:01:00
  Routing Time Step ........ 5.00 sec
  Variable Time Step ....... YES
  Maximum Trials ........... 8
  Number of Threads ........ 4
  Head Tolerance ........... 0.001500 m
  
  
  **************************        Volume         Depth
  Runoff Quantity Continuity     hectare-m            mm
  **************************     ---------       -------
  Total Precipitation ......         2.141         4.687
  Evaporation Loss .........         0.000         0.000
  Infiltration Loss ........         0.532         1.164
  Surface Runoff ...........         0.782         1.712
  Final Storage ............         0.828         1.812
  Continuity Error (%) .....        -0.018
  
  
  **************************        Volume        Volume
  Flow Routing Continuity        hectare-m      10^6 ltr
  **************************     ---------     ---------
  Dry Weather Inflow .......         0.616         6.165
  Wet Weather Inflow .......         0.781         7.813
  Groundwater Inflow .......         0.000         0.000
  RDII Inflow ..............         0.000         0.000
  External Inflow ..........         0.102         1.024
  External Outflow .........         1.009        10.089
  Flooding Loss ............         0.000         0.000
  Evaporation Loss .........         0.000         0.000
  Exfiltration Loss ........         0.000         0.000
  Initial Stored Volume ....         0.076         0.761
  Final Stored Volume ......         0.562         5.621
  Continuity Error (%) .....         0.331
  
  
  *************************
  Highest Continuity Errors
  *************************
  Node HS02004842 (33.88%)
  Node YS02001884 (28.07%)
  Node YS02001774 (27.14%)
  Node YSB1171 (9.19%)
  Node YS02001625 (8.96%)
  
  
  ***************************
  Time-Step Critical Elements
  ***************************
  Link 3 (65.64%)
  Link WS02006280WS02006229 (18.36%)
  Link WS02006238WS02006235 (4.98%)
  Link YS02001791YS02001793 (1.84%)
  
  
  ********************************
  Highest Flow Instability Indexes
  ********************************
  Link WS02006113WS02006111 (26)
  Link YS02001762YS02001759 (6)
  Link YS02001765YS02001762 (6)
  Link YS02001629YS02163301 (6)
  Link YS02001759YS02001757 (6)
  
  
  *************************
  Routing Time Step Summary
  *************************
  Minimum Time Step           :     0.50 sec
  Average Time Step           :     1.86 sec
  Maximum Time Step           :     5.00 sec
  Percent in Steady State     :    -0.00
  Average Iterations per Step :     2.29
  Percent Not Converging      :     2.22
  
  
  ***************************
  Subcatchment Runoff Summary
  ***************************
  
  ------------------------------------------------------------------------------------------------------------------------------
                            Total      Total      Total      Total     Imperv       Perv      Total       Total     Peak  Runoff
                           Precip      Runon       Evap      Infil     Runoff     Runoff     Runoff      Runoff   Runoff   Coeff
  Subcatchment                 mm         mm         mm         mm         mm         mm         mm    10^6 ltr      LPS
  ------------------------------------------------------------------------------------------------------------------------------
  sub0                       4.69       0.00       0.00       0.33       3.09       0.00       3.09        0.00     1.10   0.660
  sub1                       4.69       0.00       0.00       0.52       2.92       0.00       2.92        0.02     5.42   0.623
  sub2                       4.69       0.00       0.00       1.73       2.05       0.00       2.05        0.02     4.73   0.437
  sub3                       4.69       0.00       0.00       1.73       2.02       0.00       2.02        0.05     9.56   0.430
  sub4                       4.69       0.00       0.00       0.52       2.79       0.00       2.79        0.06    10.55   0.595
  sub5                       4.69       0.00       0.00       0.33       3.05       0.00       3.05        0.03     9.64   0.651
  sub7                       4.69       0.00       0.00       0.42       3.01       0.00       3.01        0.01     3.49   0.642
  sub8                       4.69       0.00       0.00       0.42       3.00       0.00       3.00        0.02     6.09   0.641
  sub9                       4.69       0.00       0.00       0.42       3.00       0.00       3.00        0.01     4.50   0.640
  sub10                      4.69       0.00       0.00       0.37       3.02       0.00       3.02        0.03     9.66   0.645
  sub11                      4.69       0.00       0.00       0.37       3.04       0.00       3.04        0.04    11.50   0.648
  sub12                      4.69       0.00       0.00       0.61       2.89       0.00       2.89        0.03     9.98   0.616
  sub14                      4.69       0.00       0.00       0.42       3.00       0.00       3.00        0.03     8.79   0.640
  sub15                      4.69       0.00       0.00       1.41       2.30       0.00       2.30        0.04    11.89   0.492
  sub16                      4.69       0.00       0.00       1.55       2.22       0.00       2.22        0.02     8.71   0.474
  sub17                      4.69       0.00       0.00       1.50       2.25       0.00       2.25        0.02     7.00   0.481
  sub22                      4.69       0.00       0.00       2.02       1.88       0.00       1.88        0.12    39.41   0.402
  sub23                      4.69       0.00       0.00       1.73       2.08       0.00       2.08        0.10    33.66   0.445
  sub60                      4.69       0.00       0.00       0.56       1.88       0.00       1.88        0.57    48.82   0.401
  sub61                      4.69       0.00       0.00       0.80       2.05       0.00       2.05        0.63    62.63   0.438
  sub62                      4.69       0.00       0.00       0.37       2.19       0.00       2.19        0.67    63.58   0.466
  sub63                      4.69       0.00       0.00       1.36       1.84       0.00       1.84        0.56    58.99   0.393
  sub64                      4.69       0.00       0.00       0.70       1.79       0.00       1.79        0.55    46.30   0.383
  sub65                      4.69       0.00       0.00       0.61       1.81       0.00       1.81        0.56    46.92   0.387
  sub66                      4.69       0.00       0.00       1.36       1.57       0.00       1.57        0.48    42.72   0.336
  sub67                      4.69       0.00       0.00       0.37       2.45       0.00       2.45        0.76    83.39   0.522
  sub68                      4.69       0.00       0.00       0.66       2.19       0.00       2.19        0.67    69.65   0.468
  sub69                      4.69       0.00       0.00       0.70       2.41       0.00       2.41        0.56    70.96   0.515
  sub70                      4.69       2.46       0.00       2.43       2.84       0.00       2.84        0.65    52.78   0.397
  sub71                      4.69       0.00       0.00       0.37       2.08       0.00       2.08        0.49    44.02   0.443
  sub72                      4.69       0.00       0.00       0.33       1.40       0.00       1.40        0.29    20.16   0.299
  sub73                      4.69       2.76       0.00       2.53       2.80       0.00       2.80        0.66    44.95   0.376
  sub74                      4.69       0.00       0.00       3.52       0.73       0.00       0.73        0.29    39.98   0.156
  
  
  ******************
  Node Depth Summary
  ******************
  
  ---------------------------------------------------------------------------------
                                 Average  Maximum  Maximum  Time of Max    Reported
                                   Depth    Depth      HGL   Occurrence   Max Depth
  Node                 Type       Meters   Meters   Meters  days hr:min      Meters
  ---------------------------------------------------------------------------------
  WS02001211           JUNCTION     0.65     0.70     5.53     0  02:50        0.70
  WS02001212           JUNCTION     0.37     0.41     5.47     0  02:49        0.41
  WS02001213           JUNCTION     0.57     0.64     5.40     0  02:48        0.64
  WS02003069           JUNCTION     0.34     0.44     5.02     0  02:47        0.44
  WS02003072           JUNCTION     0.41     0.51     4.88     0  02:48        0.51
  WS02003073           JUNCTION     0.24     0.30     4.37     0  02:49        0.30
  WS02003060           JUNCTION     0.31     0.39     5.32     0  02:47        0.39
  WS02003066           JUNCTION     0.14     0.23     5.78     0  02:46        0.23
  WS02003059           JUNCTION     0.63     0.69     5.38     0  02:48        0.69
  WS02003067           JUNCTION     0.39     0.57     5.89     0  02:46        0.57
  WS02004401           JUNCTION     0.45     0.65     6.65     0  02:42        0.65
  WS02004402           JUNCTION     0.48     0.68     6.64     0  02:43        0.68
  WS02004403           JUNCTION     0.51     0.70     6.63     0  02:43        0.70
  WS02004404           JUNCTION     0.58     0.78     6.63     0  02:43        0.78
  WS02004406           JUNCTION     0.60     0.79     6.62     0  02:43        0.79
  WS02004409           JUNCTION     0.26     0.46     6.23     0  02:44        0.46
  WS02004410           JUNCTION     0.29     0.48     6.20     0  02:45        0.48
  WS02004411           JUNCTION     0.31     0.50     6.18     0  02:45        0.50
  WS02004412           JUNCTION     0.33     0.52     6.16     0  02:45        0.52
  WS02004413           JUNCTION     0.48     0.69     6.16     0  02:46        0.69
  WS02004405           JUNCTION     0.58     0.78     6.63     0  02:43        0.78
  WS02006109           JUNCTION     0.50     0.72     7.33     0  02:37        0.72
  WS02006110           JUNCTION     0.52     0.72     7.31     0  02:37        0.72
  WS02006111           JUNCTION     0.12     0.21     6.92     0  02:38        0.21
  WS02006112           JUNCTION     0.59     0.81     6.69     0  02:42        0.81
  WS02006113           JUNCTION     0.18     0.32     7.21     0  02:38        0.32
  WS02006115           JUNCTION     0.33     0.53     6.67     0  02:42        0.53
  WS02006116           JUNCTION     0.41     0.62     6.66     0  02:42        0.62
  WS02006230           JUNCTION     0.40     0.63     7.38     0  02:37        0.63
  WS02006231           JUNCTION     0.22     0.36     7.48     0  02:39        0.36
  WS02006232           JUNCTION     0.32     0.48     7.52     0  02:40        0.48
  WS02006234           JUNCTION     0.23     0.38     7.54     0  02:40        0.38
  WS02006235           JUNCTION     0.26     0.40     7.57     0  02:39        0.40
  WS02006238           JUNCTION     0.28     0.42     7.57     0  02:39        0.42
  WS02006240           JUNCTION     0.15     0.28     7.57     0  02:40        0.28
  WS02006242           JUNCTION     0.17     0.30     7.57     0  02:40        0.30
  WS02006243           JUNCTION     0.07     0.15     7.57     0  02:39        0.15
  WS02006245           JUNCTION     0.06     0.14     7.62     0  02:23        0.14
  WS02006247           JUNCTION     0.07     0.16     7.66     0  02:22        0.16
  WS02006248           JUNCTION     0.05     0.12     7.71     0  02:21        0.12
  WS02006249           JUNCTION     0.07     0.17     7.76     0  02:21        0.17
  WS02006239           JUNCTION     0.21     0.36     7.57     0  02:39        0.36
  WS02006251           JUNCTION     0.05     0.14     7.81     0  02:20        0.14
  WS02006252           JUNCTION     0.00     0.00     8.24     0  00:00        0.00
  WS02006253           JUNCTION     0.09     0.20     7.84     0  02:19        0.20
  WS02006256           JUNCTION     0.82     1.16     8.10     0  02:26        1.15
  WS02004138           JUNCTION     0.15     0.17     7.42     0  05:10        0.17
  WS02004407           JUNCTION     0.12     0.21     6.53     0  02:43        0.21
  WS02006228           JUNCTION     0.47     0.70     7.35     0  02:37        0.70
  WS02006229           JUNCTION     0.44     0.67     7.36     0  02:37        0.67
  WS02006280           JUNCTION     0.05     0.12     8.40     0  02:20        0.12
  WS02006284           JUNCTION     0.35     0.45     8.85     0  02:20        0.45
  WS02006287           JUNCTION     0.08     0.18     9.14     0  02:20        0.18
  WSF200               JUNCTION     0.11     0.20     5.43     0  02:46        0.20
  HS02004901           JUNCTION     0.11     0.20    10.03     0  02:18        0.20
  HS02004881           JUNCTION     0.01     0.02     9.05     0  02:19        0.02
  HS02004876           JUNCTION     0.04     0.09     9.12     0  02:18        0.09
  HS02004870           JUNCTION     0.01     0.03     9.32     0  02:19        0.03
  HS02004862           JUNCTION     0.01     0.04     9.42     0  02:20        0.04
  HS02004856           JUNCTION     0.07     0.10     9.52     0  02:19        0.10
  HS02004852           JUNCTION     0.01     0.02     9.53     0  02:20        0.02
  HS02004848           JUNCTION     0.01     0.02     9.62     0  02:18        0.02
  HS02004842           JUNCTION     0.33     0.35     9.62     0  02:18        0.35
  HS02004837           JUNCTION     0.03     0.04     9.62     0  02:17        0.04
  HS02004830           JUNCTION     0.04     0.05     9.52     0  02:18        0.05
  HS02004824           JUNCTION     0.02     0.03     9.44     0  02:21        0.03
  HS02004817           JUNCTION     0.42     0.50     9.35     0  02:20        0.50
  HS02004807           JUNCTION     0.11     0.18     9.35     0  02:20        0.18
  HS02004802           JUNCTION     0.15     0.21     9.34     0  02:20        0.21
  HS02004799           JUNCTION     0.10     0.22     9.43     0  02:18        0.22
  HS02004792           JUNCTION     0.02     0.08     9.60     0  02:17        0.08
  HS02004788           JUNCTION     0.02     0.06     9.96     0  02:19        0.06
  HS02004785           JUNCTION     0.04     0.11    10.01     0  02:19        0.11
  HS02004777           JUNCTION     0.13     0.23    10.03     0  02:18        0.23
  HS02004770           JUNCTION     0.10     0.20    10.03     0  02:18        0.20
  HS02004480           JUNCTION     0.06     0.17     9.41     0  02:19        0.17
  HS02004479           JUNCTION     0.10     0.21     9.41     0  02:18        0.21
  HS02004478           JUNCTION     0.05     0.11     9.33     0  02:19        0.11
  YS02001745           JUNCTION     0.21     0.63     8.15     0  07:50        0.63
  YS02001748           JUNCTION     0.48     1.07     8.15     0  07:50        1.07
  YS02001751           JUNCTION     0.65     1.27     8.15     0  07:50        1.27
  YS02001754           JUNCTION     0.89     1.54     8.15     0  07:50        1.54
  YS02001762           JUNCTION     1.08     1.75     8.15     0  07:50        1.75
  YS02001765           JUNCTION     1.03     1.70     8.15     0  07:50        1.70
  YS02001767           JUNCTION     1.00     1.66     8.15     0  07:50        1.66
  YS02001770           JUNCTION     1.00     1.65     8.15     0  07:50        1.65
  YS02001774           JUNCTION     1.06     1.72     8.15     0  07:49        1.72
  YS02001779           JUNCTION     0.82     1.46     8.15     0  07:49        1.46
  YS02001882           JUNCTION     0.25     0.37     7.08     0  02:51        0.37
  YS02001884           JUNCTION     0.34     0.47     7.08     0  02:51        0.47
  YS02001759           JUNCTION     1.11     1.78     8.15     0  07:50        1.78
  YS02001887           JUNCTION     0.42     0.54     7.08     0  02:51        0.54
  YS02001890           JUNCTION     0.45     0.58     7.08     0  02:51        0.58
  YS02001898           JUNCTION     0.22     0.33     7.07     0  02:53        0.33
  YS02001901           JUNCTION     0.34     0.46     7.07     0  02:52        0.46
  YS02001904           JUNCTION     0.32     0.43     7.06     0  02:52        0.43
  YS02001907           JUNCTION     0.64     0.78     7.06     0  02:52        0.78
  YS02001910           JUNCTION     0.43     0.56     7.06     0  02:52        0.56
  YS02001915           JUNCTION     0.24     0.35     7.06     0  02:51        0.35
  YS02001918           JUNCTION     0.07     0.08     7.15     0  03:03        0.08
  YS02001619           JUNCTION     0.61     1.22     8.15     0  07:49        1.22
  YS02001629           JUNCTION     0.94     1.60     8.15     0  07:49        1.60
  YS02001641           JUNCTION     1.05     1.71     8.15     0  07:49        1.71
  YS02001644           JUNCTION     1.05     1.72     8.15     0  07:49        1.71
  YS02001652           JUNCTION     0.90     1.55     8.15     0  07:50        1.55
  YS02001655           JUNCTION     0.68     1.30     8.15     0  07:50        1.30
  YS02001920           JUNCTION     0.16     0.18     7.19     0  03:03        0.18
  YS02001923           JUNCTION     0.05     0.07     7.33     0  03:02        0.07
  YS02001926           JUNCTION     0.12     0.15     7.59     0  03:01        0.15
  YS02001929           JUNCTION     0.05     0.07     7.76     0  03:01        0.07
  YS02001658           JUNCTION     0.43     1.01     8.15     0  07:50        1.01
  YS02001661           JUNCTION     0.30     0.74     8.15     0  07:50        0.74
  YS02001664           JUNCTION     0.08     0.22     8.15     0  07:50        0.22
  YS02001622           JUNCTION     0.63     1.25     8.15     0  07:49        1.24
  YS02001633           JUNCTION     1.03     1.70     8.15     0  07:49        1.69
  YS02001649           JUNCTION     1.09     1.76     8.15     0  07:50        1.76
  YS02001757           JUNCTION     1.21     1.89     8.15     0  07:50        1.89
  YS02001895           JUNCTION     0.22     0.33     7.08     0  02:51        0.33
  YS02001625           JUNCTION     0.90     1.55     8.15     0  07:49        1.54
  YS02163301           JUNCTION     0.97     1.63     8.15     0  07:49        1.63
  YS02163601           JUNCTION     1.09     1.75     8.15     0  07:49        1.75
  YS02164001           JUNCTION     1.03     1.69     8.15     0  07:49        1.69
  YS02001647           JUNCTION     0.89     1.54     8.15     0  07:49        1.54
  YSB1154              JUNCTION     0.24     0.35     9.41     0  02:19        0.35
  YSB6556              JUNCTION     0.13     0.24     9.41     0  02:18        0.24
  YSB1174              JUNCTION     0.19     0.30     9.41     0  02:19        0.30
  YSB1171              JUNCTION     0.39     0.51     9.41     0  02:18        0.51
  YS02006553           JUNCTION     0.65     0.78     7.06     0  02:52        0.78
  YS02006561           JUNCTION     0.12     0.18     6.84     0  02:52        0.18
  YS02006556           JUNCTION     0.62     0.75     7.06     0  02:52        0.75
  YS02006558           JUNCTION     0.66     0.79     7.06     0  02:52        0.79
  YS02001783           JUNCTION     0.21     0.32     6.46     0  02:52        0.32
  YS02001784           JUNCTION     0.24     0.35     6.42     0  02:53        0.35
  YS02001786           JUNCTION     0.21     0.30     6.33     0  02:53        0.30
  YS02001788           JUNCTION     0.15     0.22     6.20     0  02:53        0.22
  YS02001790           JUNCTION     0.18     0.27     5.91     0  02:54        0.27
  YS02001791           JUNCTION     0.12     0.18     5.65     0  02:53        0.18
  YS02001793           JUNCTION     0.14     0.62     5.45     0  03:33        0.58
  WS02004139           JUNCTION     0.60     0.64     5.55     0  02:50        0.64
  WSC                  OUTFALL      0.24     0.30     0.97     0  02:49        0.30
  3                    OUTFALL      0.07     0.13     6.13     0  02:26        0.13
  4                    OUTFALL      0.00     0.00     7.00     0  00:00        0.00
  5                    OUTFALL      0.00     0.00     5.00     0  00:00        0.00
  JK-storage           STORAGE      3.84     4.59     5.39     0  03:11        4.58
  CC-storage           STORAGE      0.52     1.15     8.15     0  07:50        1.15
  XR-storage           STORAGE      6.63     7.00     5.00     0  04:05        7.00
  
  
  *******************
  Node Inflow Summary
  *******************
  
  -------------------------------------------------------------------------------------------------
                                  Maximum  Maximum                  Lateral       Total        Flow
                                  Lateral    Total  Time of Max      Inflow      Inflow     Balance
                                   Inflow   Inflow   Occurrence      Volume      Volume       Error
  Node                 Type           LPS      LPS  days hr:min    10^6 ltr    10^6 ltr     Percent
  -------------------------------------------------------------------------------------------------
  WS02001211           JUNCTION      7.35   294.22     0  05:11       0.207        6.59       0.485
  WS02001212           JUNCTION      0.00   293.98     0  02:56           0        6.56       0.239
  WS02001213           JUNCTION      0.00   294.66     0  02:55           0        6.55       0.273
  WS02003069           JUNCTION      0.32   577.51     0  02:47     0.00902        8.97       0.178
  WS02003072           JUNCTION      0.00   577.23     0  02:48           0        8.95       0.245
  WS02003073           JUNCTION      1.82   578.82     0  02:48      0.0514        8.98       0.259
  WS02003060           JUNCTION     16.53   577.32     0  02:46       0.466        8.98       0.172
  WS02003066           JUNCTION      0.00   272.58     0  02:46           0        2.02       0.083
  WS02003059           JUNCTION      0.00   296.07     0  02:55           0        6.53       0.488
  WS02003067           JUNCTION      0.00   272.62     0  02:46           0        2.02       0.230
  WS02004401           JUNCTION      0.00   280.74     0  02:42           0        2.14       0.518
  WS02004402           JUNCTION      0.00   279.98     0  02:42           0        2.12       0.526
  WS02004403           JUNCTION      0.00   279.41     0  02:42           0        2.11       0.509
  WS02004404           JUNCTION      0.16   279.27     0  02:43     0.00457        2.11       0.431
  WS02004406           JUNCTION      0.00   278.87     0  02:43           0        2.09       1.038
  WS02004409           JUNCTION      0.00   278.55     0  02:44           0        2.06       0.180
  WS02004410           JUNCTION      0.00   277.07     0  02:44           0        2.06       0.273
  WS02004411           JUNCTION      0.00   275.56     0  02:44           0        2.05       0.331
  WS02004412           JUNCTION      0.00   274.44     0  02:45           0        2.05       0.430
  WS02004413           JUNCTION      0.00   273.55     0  02:45           0        2.04       0.747
  WS02004405           JUNCTION      0.04   279.12     0  02:43     0.00107         2.1       0.630
  WS02006109           JUNCTION      1.23   285.04     0  02:35      0.0347        2.17       0.410
  WS02006110           JUNCTION      0.00   284.88     0  02:35           0        2.16       0.526
  WS02006111           JUNCTION      0.00   286.23     0  02:38           0        2.15       0.051
  WS02006112           JUNCTION      7.00   286.77     0  02:38      0.0193        2.17       0.711
  WS02006113           JUNCTION      0.00   283.86     0  02:36           0        2.15       0.129
  WS02006115           JUNCTION      0.00   284.37     0  02:38           0        2.15       0.372
  WS02006116           JUNCTION      0.00   282.02     0  02:40           0        2.14       0.390
  WS02006230           JUNCTION     10.28   167.93     0  02:39        0.29        1.45       0.436
  WS02006231           JUNCTION      0.00   158.19     0  02:40           0        1.16       0.394
  WS02006232           JUNCTION      0.00   161.68     0  02:32           0        1.17       1.013
  WS02006234           JUNCTION      0.00   161.03     0  02:32           0        1.17      -0.286
  WS02006235           JUNCTION      0.00   182.02     0  02:47           0        1.41       0.919
  WS02006238           JUNCTION      0.00   122.07     0  03:33           0       0.457       0.640
  WS02006240           JUNCTION      0.00    56.24     0  02:28           0       0.261       1.667
  WS02006242           JUNCTION      0.00    45.36     0  02:49           0       0.175       2.651
  WS02006243           JUNCTION      0.00    29.41     0  02:23           0       0.118       0.061
  WS02006245           JUNCTION      0.00    29.42     0  02:22           0        0.11       0.790
  WS02006247           JUNCTION      0.00    29.46     0  02:21           0        0.11       0.105
  WS02006248           JUNCTION      0.00    29.46     0  02:21           0        0.11       0.030
  WS02006249           JUNCTION      0.00    29.53     0  02:20           0        0.11       0.321
  WS02006239           JUNCTION      0.00    79.27     0  02:27           0       0.361       1.242
  WS02006251           JUNCTION      0.08    29.58     0  02:19     0.00217        0.11       0.067
  WS02006252           JUNCTION      0.00     0.00     0  00:00           0           0       0.000 ltr
  WS02006253           JUNCTION      1.10    29.53     0  02:19      0.0025       0.108       0.140
  WS02006256           JUNCTION      0.00   300.00     0  02:26           0        2.25       0.575
  WS02004138           JUNCTION      0.00   285.00     0  02:08           0        6.41       0.051
  WS02004407           JUNCTION      0.00   278.64     0  02:43           0        2.06       0.082
  WS02006228           JUNCTION      0.00   284.08     0  02:35           0        2.15       0.399
  WS02006229           JUNCTION      0.00   285.11     0  02:35           0        2.16       0.538
  WS02006280           JUNCTION      0.00   155.92     0  02:20           0       0.718       0.010
  WS02006284           JUNCTION      0.10   155.92     0  02:20      0.0027       0.719       0.149
  WS02006287           JUNCTION      0.00   155.83     0  02:19           0       0.717       0.100
  WSF200               JUNCTION      0.00   272.54     0  02:46           0        2.02       0.057
  HS02004901           JUNCTION      8.71     8.71     0  02:11      0.0232      0.0234       8.115
  HS02004881           JUNCTION      3.49    28.72     0  02:19      0.0101       0.106       0.057
  HS02004876           JUNCTION      5.42    25.55     0  02:19      0.0194       0.096       0.544
  HS02004870           JUNCTION      6.09    20.28     0  02:19      0.0192      0.0767       0.138
  HS02004862           JUNCTION      4.93    14.68     0  02:19      0.0247      0.0577       0.289
  HS02004856           JUNCTION      4.50     9.81     0  02:18      0.0144      0.0344       4.365
  HS02004852           JUNCTION      0.00     5.64     0  02:19           0        0.02       0.242
  HS02004848           JUNCTION      9.56     9.56     0  02:21      0.0454      0.0454       0.094
  HS02004842           JUNCTION      0.00     4.49     0  00:03           0      0.0384      51.239
  HS02004837           JUNCTION     16.01    19.73     0  02:17       0.212       0.238       0.332
  HS02004830           JUNCTION      0.15    19.86     0  02:17     0.00423       0.228       0.542
  HS02004824           JUNCTION     10.60    30.33     0  02:21      0.0596       0.286       0.189
  HS02004817           JUNCTION      0.60    30.93     0  02:21      0.0169       0.303       5.821
  HS02004807           JUNCTION     11.50    41.28     0  02:20      0.0353       0.321       1.332
  HS02004802           JUNCTION      0.00    41.37     0  02:21           0       0.317       1.298
  HS02004799           JUNCTION      8.79    97.59     0  02:17      0.0285       0.358       0.631
  HS02004792           JUNCTION     39.69    89.11     0  02:17       0.127        0.33       0.126
  HS02004788           JUNCTION     13.56    51.86     0  02:18      0.0867       0.205       0.188
  HS02004785           JUNCTION      0.15    38.92     0  02:17     0.00423        0.12       0.401
  HS02004777           JUNCTION      0.03    39.39     0  02:16    0.000846        0.12       4.496
  HS02004770           JUNCTION     33.66    40.86     0  02:14      0.0993       0.121       2.627
  HS02004480           JUNCTION      0.00   114.96     0  02:18           0       0.415       0.169
  HS02004479           JUNCTION      0.00    17.76     0  02:20           0      0.0694       1.061
  HS02004478           JUNCTION      0.00   155.83     0  02:19           0       0.717       0.090
  YS02001745           JUNCTION     48.83    73.25     0  04:39       0.569        0.58       1.571
  YS02001748           JUNCTION      0.04    94.58     0  04:41     0.00127       0.585       4.108
  YS02001751           JUNCTION      0.01   112.96     0  03:38     0.00031       0.551       4.654
  YS02001754           JUNCTION      0.26    79.84     0  02:47     0.00733       0.527       5.084
  YS02001762           JUNCTION      0.00    81.63     0  02:53           0       0.591       3.976
  YS02001765           JUNCTION      0.00    92.43     0  02:54           0       0.595       4.474
  YS02001767           JUNCTION      0.54    88.79     0  03:42      0.0151       0.618       6.290
  YS02001770           JUNCTION     63.73    96.08     0  03:43       0.676       0.704       5.104
  YS02001774           JUNCTION      0.00    53.22     0  03:40           0      0.0989      37.257
  YS02001779           JUNCTION      0.01    53.02     0  03:42    0.000141      0.0438      58.229
  YS02001882           JUNCTION      0.00     3.18     0  02:10           0     0.00399      61.155
  YS02001884           JUNCTION      0.00     9.26     0  02:10           0      0.0161      39.022
  YS02001759           JUNCTION     62.67   145.99     0  02:53       0.633        1.19       2.088
  YS02001887           JUNCTION     83.84    83.84     0  02:41       0.768       0.775       0.882
  YS02001890           JUNCTION      0.00    83.37     0  02:44           0       0.755       0.996
  YS02001898           JUNCTION      0.00    82.99     0  02:47           0       0.744       0.256
  YS02001901           JUNCTION      0.00    83.01     0  02:47           0       0.744       0.696
  YS02001904           JUNCTION      0.00    82.63     0  02:48           0       0.744       0.648
  YS02001907           JUNCTION      0.00   148.84     0  02:54           0        1.58       1.373
  YS02001910           JUNCTION      0.00    67.29     0  03:00           0        0.85       1.152
  YS02001915           JUNCTION     44.04    66.80     0  03:00        0.49       0.854       0.484
  YS02001918           JUNCTION      0.00    23.06     0  03:03           0       0.365       0.252
  YS02001619           JUNCTION     42.72    42.72     0  02:55       0.483       0.483       2.763
  YS02001629           JUNCTION      0.00    72.91     0  03:46           0       0.404       8.109
  YS02001641           JUNCTION      0.00    88.54     0  03:41           0       0.849       2.750
  YS02001644           JUNCTION     46.34   133.90     0  02:57       0.546        1.36       2.064
  YS02001652           JUNCTION      0.00    77.68     0  03:02           0       0.497       5.190
  YS02001655           JUNCTION      0.15   101.58     0  03:35     0.00434       0.528       5.110
  YS02001920           JUNCTION      2.87    23.07     0  03:02      0.0809       0.367       0.497
  YS02001923           JUNCTION      0.04    20.20     0  03:02     0.00106       0.286       0.086
  YS02001926           JUNCTION      0.05    20.21     0  03:01     0.00147       0.287       0.629
  YS02001929           JUNCTION     20.16    20.16     0  03:01       0.285       0.285       0.083
  YS02001658           JUNCTION      0.00    75.38     0  04:23           0       0.551       4.458
  YS02001661           JUNCTION      0.00    58.99     0  02:43           0       0.559       3.170
  YS02001664           JUNCTION     58.99    58.99     0  02:43       0.557       0.557       0.415
  YS02001622           JUNCTION      0.00    66.64     0  03:57           0        0.47       7.457
  YS02001633           JUNCTION     47.12    90.20     0  03:03       0.563       0.911       3.742
  YS02001649           JUNCTION      0.00   222.52     0  03:03           0        1.77       2.281
  YS02001757           JUNCTION      0.00   408.56     0  02:49           0        3.36       2.899
  YS02001895           JUNCTION      0.00    83.06     0  02:46           0       0.747       0.452
  YS02001625           JUNCTION      0.00    76.49     0  03:57           0       0.442       9.836
  YS02163301           JUNCTION      0.00    57.02     0  03:43           0       0.376       7.299
  YS02163601           JUNCTION      0.11    91.54     0  03:02      0.0031       0.876       3.693
  YS02164001           JUNCTION      0.00    89.66     0  03:03           0       0.854       2.764
  YS02001647           JUNCTION      0.00   131.17     0  02:58           0        1.33       2.293
  YSB1154              JUNCTION      9.64     9.64     0  02:15      0.0345      0.0359       4.186
  YSB6556              JUNCTION      0.00     9.52     0  02:18           0       0.037       3.482
  YSB1174              JUNCTION      9.98     9.98     0  02:10      0.0252      0.0263       5.141
  YSB1171              JUNCTION      0.00    17.76     0  02:18           0      0.0688      10.116
  YS02006553           JUNCTION      0.00   148.87     0  02:54           0        1.57       0.893
  YS02006561           JUNCTION      0.00   218.64     0  02:52           0        2.22       0.026
  YS02006556           JUNCTION      0.00   148.94     0  02:55           0        1.58       0.641
  YS02006558           JUNCTION     70.53   218.66     0  02:52       0.699        2.25       0.195
  YS02001783           JUNCTION      0.00   218.63     0  02:52           0        2.22       0.059
  YS02001784           JUNCTION      1.06   219.70     0  02:53      0.0299        2.25       0.099
  YS02001786           JUNCTION      0.06   219.73     0  02:53     0.00159        2.25       0.096
  YS02001788           JUNCTION      0.07   219.79     0  02:53       0.002        2.25       0.055
  YS02001790           JUNCTION      0.15   219.95     0  02:54     0.00437        2.25       0.069
  YS02001791           JUNCTION      0.00   219.94     0  02:54           0        2.25       0.032
  YS02001793           JUNCTION      0.00   449.36     0  02:50           0        2.27       0.090
  WS02004139           JUNCTION      0.32   285.39     0  05:10     0.00905        6.42       0.472
  WSC                  OUTFALL       0.00   578.46     0  02:49           0        8.96       0.000
  3                    OUTFALL       0.00   253.97     0  02:26           0        1.13       0.000
  4                    OUTFALL       0.00     0.00     0  00:00           0           0       0.000 ltr
  5                    OUTFALL       0.00     0.00     0  00:00           0           0       0.000 ltr
  JK-storage           STORAGE       0.00   800.18     0  02:51           0        2.42       0.056
  CC-storage           STORAGE       0.00   333.66     0  02:51           0        3.25       1.855
  XR-storage           STORAGE     280.13   280.13     0  02:48        6.59        7.19       0.000
  
  
  **********************
  Node Surcharge Summary
  **********************
  
  Surcharging occurs when water rises above the top of the highest conduit.
  ---------------------------------------------------------------------
                                               Max. Height   Min. Depth
                                   Hours       Above Crown    Below Rim
  Node                 Type      Surcharged         Meters       Meters
  ---------------------------------------------------------------------
  YS02001751           JUNCTION        2.22          0.268        0.932
  YS02001754           JUNCTION        3.37          0.489        0.661
  YS02001762           JUNCTION        4.39          0.747        0.403
  YS02001765           JUNCTION        4.19          0.697        0.403
  YS02001767           JUNCTION        4.07          0.658        0.372
  YS02001770           JUNCTION        3.92          0.622        0.298
  YS02001774           JUNCTION        4.31          0.725        0.325
  YS02001779           JUNCTION        3.21          0.461        0.219
  YS02001759           JUNCTION        4.52          0.783        0.427
  YS02001619           JUNCTION        1.91          0.222        0.388
  YS02001629           JUNCTION        1.91          0.221        0.249
  YS02001641           JUNCTION        4.25          0.711        0.389
  YS02001644           JUNCTION        4.27          0.716        0.204
  YS02001652           JUNCTION        3.49          0.521        0.609
  YS02001655           JUNCTION        2.38          0.297        0.903
  YS02001658           JUNCTION        0.07          0.006        1.294
  YS02001622           JUNCTION        2.04          0.247        0.373
  YS02001633           JUNCTION        4.12          0.676        0.384
  YS02001649           JUNCTION        4.43          0.757        0.293
  YS02001757           JUNCTION        4.97          0.886        0.324
  YS02001625           JUNCTION        3.61          0.547        0.233
  YS02163301           JUNCTION        3.96          0.633        0.397
  YS02163601           JUNCTION        4.40          0.751        0.329
  YS02164001           JUNCTION        4.18          0.690        0.410
  YS02001647           JUNCTION        3.57          0.537        0.363
  
  
  *********************
  Node Flooding Summary
  *********************
  
  No nodes were flooded.
  
  
  **********************
  Storage Volume Summary
  **********************
  
  --------------------------------------------------------------------------------------------------
                         Average     Avg  Evap Exfil       Maximum     Max    Time of Max    Maximum
                          Volume    Pcnt  Pcnt  Pcnt        Volume    Pcnt     Occurrence    Outflow
  Storage Unit           1000 m3    Full  Loss  Loss       1000 m3    Full    days hr:min        LPS
  --------------------------------------------------------------------------------------------------
  JK-storage               0.193      66     0     0         0.230      79       0  03:11     517.92
  CC-storage               1.437       9     0     0         3.195      20       0  07:50       0.00
  XR-storage               0.796      86     0     0         0.840      91       0  04:05     285.00
  
  
  ***********************
  Outfall Loading Summary
  ***********************
  
  -----------------------------------------------------------
                         Flow       Avg       Max       Total
                         Freq      Flow      Flow      Volume
  Outfall Node           Pcnt       LPS       LPS    10^6 ltr
  -----------------------------------------------------------
  WSC                   99.99    375.04    578.46       8.961
  3                     65.72    153.65    253.97       1.128
  4                      0.00      0.00      0.00       0.000
  5                      0.00      0.00      0.00       0.000
  -----------------------------------------------------------
  System                41.43    528.69    814.99      10.089
  
  
  ********************
  Link Flow Summary
  ********************
  
  -----------------------------------------------------------------------------
                                 Maximum  Time of Max   Maximum    Max/    Max/
                                  |Flow|   Occurrence   |Veloc|    Full    Full
  Link                 Type          LPS  days hr:min     m/sec    Flow   Depth
  -----------------------------------------------------------------------------
  WS02003066WSF200     CONDUIT    272.54     0  02:46      2.41    0.05    0.16
  WS02006287WS02006284 CONDUIT    155.82     0  02:20      1.47    0.07    0.19
  WS02006284WS02006280 CONDUIT    155.92     0  02:20      1.72    0.07    0.17
  WS02006280WS02006229 CONDUIT    155.92     0  02:20      2.76    0.03    0.12
  WS02006229WS02006228 CONDUIT    284.08     0  02:35      0.65    0.94    0.84
  WS02006256WS02006235 CONDUIT    166.35     0  04:55      2.56    1.76    1.00
  WS02006253WS02006251 CONDUIT     29.51     0  02:19      0.44    0.09    0.23
  WS02006252WS02006251 CONDUIT      0.00     0  00:00      0.00    0.00    0.00
  WS02006251WS02006249 CONDUIT     29.53     0  02:20      0.48    0.09    0.22
  WS02006249WS02006248 CONDUIT     29.46     0  02:21      0.57    0.16    0.19
  WS02006248WS02006247 CONDUIT     29.46     0  02:21      0.56    0.06    0.19
  WS02006247WS02006245 CONDUIT     29.42     0  02:22      0.50    0.23    0.21
  WS02006245WS02006243 CONDUIT     29.41     0  02:23      0.64    0.09    0.19
  WS02006243WS02006242 CONDUIT     34.46     0  02:43      0.51    0.07    0.31
  WS02006242WS02006240 CONDUIT     49.39     0  02:42      0.50    0.20    0.41
  WS02006240WS02006239 CONDUIT     65.89     0  02:41      0.63    0.21    0.43
  WS02006239WS02006238 CONDUIT     96.96     0  02:41      0.66    0.31    0.55
  WS02006238WS02006235 CONDUIT    134.66     0  02:41      1.07    0.30    0.59
  WS02006235WS02006234 CONDUIT    161.03     0  02:32      0.94    1.70    0.54
  WS02006234WS02006232 CONDUIT    161.68     0  02:32      0.82    0.33    0.62
  WS02006232WS02006231 CONDUIT    158.19     0  02:40      0.68    0.33    0.59
  WS02006231WS02006230 CONDUIT    157.65     0  02:39      0.99    2.39    0.43
  WS02006230WS02006229 CONDUIT    182.07     0  03:04      0.52    4.05    0.89
  WS02006228WS02006109 CONDUIT    283.81     0  02:35      0.61    1.24    0.87
  WS02006116WS02004401 CONDUIT    280.74     0  02:42      0.54    0.39    0.63
  WS02006115WS02006116 CONDUIT    282.02     0  02:40      0.67    0.36    0.54
  WS02006113WS02006111 CONDUIT    286.23     0  02:38      1.98    0.34    0.33
  WS02006112WS02006115 CONDUIT    284.37     0  02:38      0.53    0.17    0.66
  WS02006111WS02006112 CONDUIT    283.45     0  02:38      0.89    0.13    0.62
  WS02006110WS02006113 CONDUIT    283.86     0  02:36      0.82    0.26    0.65
  WS02006109WS02006110 CONDUIT    284.88     0  02:35      0.64    0.55    0.83
  WS02004411WS02004412 CONDUIT    274.44     0  02:45      0.83    0.39    0.51
  WS02004401WS02004402 CONDUIT    279.98     0  02:42      0.51    0.34    0.66
  WS02004413WS02003067 CONDUIT    272.62     0  02:46      0.77    0.12    0.46
  WS02004412WS02004413 CONDUIT    273.55     0  02:45      0.77    0.18    0.61
  WS02004410WS02004411 CONDUIT    275.56     0  02:44      0.72    0.38    0.49
  WS02004409WS02004410 CONDUIT    277.07     0  02:44      0.77    0.36    0.47
  WS02004407WS02004409 CONDUIT    278.55     0  02:44      1.22    0.10    0.34
  WS02004406WS02004407 CONDUIT    278.64     0  02:43      0.70    0.12    0.50
  WS02004405WS02004406 CONDUIT    278.87     0  02:43      0.42    0.55    0.79
  WS02004404WS02004405 CONDUIT    279.09     0  02:43      0.42    2.73    0.78
  WS02004403WS02004404 CONDUIT    279.11     0  02:43      0.45    0.20    0.74
  WS02004402WS02004403 CONDUIT    279.41     0  02:42      0.48    0.40    0.69
  WS02004139WS02001211 CONDUIT    286.88     0  05:11      0.54    0.36    0.51
  WS02004138WS02004139 CONDUIT    285.07     0  05:10      2.39    0.06    0.38
  WS02003067WS02003066 CONDUIT    272.58     0  02:46      0.82    0.09    0.33
  WS02001213WS02003059 CONDUIT    296.07     0  02:55      0.59    0.49    0.66
  WS02001212WS02001213 CONDUIT    294.66     0  02:55      1.19    0.45    0.36
  WS02001211WS02001212 CONDUIT    293.98     0  02:56      0.67    0.22    0.55
  WS02003072WS02003073 CONDUIT    577.00     0  02:48      1.46    1.25    0.38
  WS02003069WS02003072 CONDUIT    577.23     0  02:48      1.39    0.28    0.40
  WS02003060WS02003069 CONDUIT    577.19     0  02:47      1.66    0.23    0.35
  WS02003059WS02003060 CONDUIT    298.07     0  02:54      0.82    0.19    0.54
  HS02004901HS02004770 CONDUIT      7.70     0  02:16      0.04    0.03    0.29
  HS02004876HS02004881 CONDUIT     25.59     0  02:19      0.46    0.27    0.08
  HS02004870HS02004876 CONDUIT     20.26     0  02:19      0.32    0.01    0.09
  HS02004842HS02004848 CONDUIT      4.23     0  02:30      0.02    0.00    0.27
  HS02004837HS02004842 CONDUIT      4.49     0  00:03      0.42    0.00    0.28
  HS02004830HS02004837 CONDUIT     19.71     0  02:17      0.41    0.02    0.07
  HS02004824HS02004830 CONDUIT     19.86     0  02:19      0.45    0.03    0.06
  HS02004817HS02004824 CONDUIT     30.33     0  02:21      0.17    0.01    0.38
  HS02004770HS02004777 CONDUIT     39.36     0  02:16      0.19    0.07    0.30
  HS02004799HS02004480 CONDUIT     97.38     0  02:18      0.51    0.12    0.27
  HS02004792HS02004799 CONDUIT     89.05     0  02:17      0.59    0.05    0.21
  HS02004788HS02004792 CONDUIT     51.81     0  02:19      0.75    0.03    0.10
  HS02004785HS02004788 CONDUIT     38.75     0  02:19      0.45    0.29    0.12
  HS02004777HS02004785 CONDUIT     38.77     0  02:17      0.23    0.05    0.24
  HS02004480HS02004478 CONDUIT    114.91     0  02:19      0.85    0.48    0.19
  HS02004479HS02004480 CONDUIT     17.91     0  02:21      0.15    0.02    0.27
  HS02004862HS02004870 CONDUIT     14.63     0  02:20      0.41    0.02    0.05
  HS02004848HS02004852 CONDUIT      5.64     0  02:19      0.27    0.01    0.03
  HS02004856HS02004862 CONDUIT      9.78     0  02:19      0.30    0.01    0.05
  HS02004852HS02004856 CONDUIT      5.60     0  02:20      0.09    0.01    0.08
  HS02004802HS02004478 CONDUIT     41.58     0  02:22      0.26    0.04    0.23
  HS02004478WS02006287 CONDUIT    155.83     0  02:19      1.16    0.04    0.15
  HS02004817HS02004807 CONDUIT     31.24     0  02:23      0.09    0.02    0.48
  HS02004807HS02004802 CONDUIT     41.37     0  02:21      0.22    0.08    0.27
  YS02001759YS02001757 CONDUIT    135.56     0  02:53      0.18    0.10    1.00
  YS02001762YS02001759 CONDUIT     83.93     0  02:57      0.17    0.10    1.00
  YS02001765YS02001762 CONDUIT     81.63     0  02:53      0.22    0.08    1.00
  YS02001770YS02001767 CONDUIT     88.25     0  03:42      0.33    0.35    1.00
  YS02001774YS02001770 CONDUIT     53.22     0  03:40      0.13    0.03    1.00
  YS02001779YS02001774 CONDUIT     53.02     0  03:42      0.08    0.03    1.00
  YS02001649YS02001757 CONDUIT    195.76     0  02:50      0.26    0.12    1.00
  YS02001767YS02001765 CONDUIT     92.43     0  02:54      0.26    0.12    1.00
  YS02006561YS02001783 CONDUIT    218.63     0  02:52      1.62    0.11    0.31
  YS02001783YS02001784 CONDUIT    218.64     0  02:53      1.10    0.30    0.42
  YS02001784YS02001785 CONDUIT    219.67     0  02:53      1.15    0.51    0.41
  YS02001788YS02001790 CONDUIT    219.79     0  02:54      1.71    0.16    0.30
  YS02001790YS02001791 CONDUIT    219.94     0  02:54      2.00    0.24    0.28
  YS02001791YS02001793 CONDUIT    236.09     0  02:52      3.94    0.10    0.48
  YS02001910YS02001907 CONDUIT     67.40     0  03:01      0.49    0.04    0.66
  YS02001786YS02001788 CONDUIT    219.72     0  02:53      1.57    0.42    0.32
  YS02001915YS02001910 CONDUIT     67.29     0  03:00      0.44    0.03    0.45
  YS02001918YS02001915 CONDUIT     23.05     0  03:03      0.44    0.01    0.21
  YS02001923YS02001920 CONDUIT     20.20     0  03:02      0.37    0.01    0.12
  YS02001926YS02001923 CONDUIT     20.16     0  03:02      0.42    0.03    0.11
  YS02001929YS02001926 CONDUIT     20.15     0  03:01      0.44    0.01    0.11
  YS02001920YS02001918 CONDUIT     23.06     0  03:03      0.39    0.02    0.13
  YS02001629YS02163301 CONDUIT     50.29     0  02:59      0.10    0.06    1.00
  YS02001619YS02001622 CONDUIT     66.64     0  03:57      0.61    0.10    1.00
  YS02001622YS02001625 CONDUIT     57.56     0  03:57      0.21    0.03    1.00
  YS02001625YS02001629 CONDUIT     72.91     0  03:46      0.21    0.03    1.00
  YS02163301YS02001633 CONDUIT     46.65     0  03:42      0.10    0.04    1.00
  YS02163601YS02164001 CONDUIT     89.66     0  03:03      0.13    0.08    1.00
  YS02164001YS02001641 CONDUIT     88.54     0  03:41      0.12    0.12    1.00
  YS02001641YS02001644 CONDUIT     87.57     0  02:57      0.14    0.28    1.00
  YS02001647YS02001649 CONDUIT    144.59     0  03:43      0.21    0.08    1.00
  YS02006553YS02006556 CONDUIT    148.94     0  02:55      0.24    0.13    0.74
  YS02006556YS02006558 CONDUIT    148.95     0  02:55      0.23    0.12    0.77
  YSB6556YSB1171       CONDUIT      9.62     0  02:21      0.05    0.01    0.54
  YS02001907YS02006553 CONDUIT    148.87     0  02:54      0.20    0.18    0.85
  YS02006558YS02006561 CONDUIT    218.64     0  02:52      2.09    0.48    0.40
  YS02001633YS02163601 CONDUIT     91.43     0  03:02      0.13    0.10    1.00
  YS02001644YS02001647 CONDUIT    131.17     0  02:58      0.21    0.08    1.00
  YS02001745YS02001748 CONDUIT     94.53     0  04:41      1.29    0.04    0.81
  YS02001748YS02001751 CONDUIT    112.95     0  03:38      1.01    0.06    1.00
  YS02001751YS02001754 CONDUIT     79.58     0  02:47      0.92    0.04    1.00
  YS02001754YS02001757 CONDUIT     91.25     0  03:38      0.33    0.04    1.00
  YS02001882YS02001884 CONDUIT      3.18     0  02:10      0.06    0.00    0.39
  YS02001884YS02001887 CONDUIT      9.26     0  02:10      0.06    0.01    0.48
  YS02001890YS02001895 CONDUIT     83.06     0  02:46      0.24    0.04    0.45
  YS02001895YS02001898 CONDUIT     82.99     0  02:47      0.47    0.14    0.31
  YS02001898YS02001901 CONDUIT     83.01     0  02:47      0.29    0.05    0.39
  YS02001901YS02001904 CONDUIT     82.63     0  02:48      0.25    0.13    0.44
  YS02001904YS02001907 CONDUIT     82.81     0  02:48      0.17    0.03    0.60
  YS02001887YS02001890 CONDUIT     83.37     0  02:44      0.20    0.14    0.53
  YS02001652YS02001649 CONDUIT     91.37     0  03:37      0.32    0.05    1.00
  YS02001655YS02001652 CONDUIT     77.68     0  03:02      1.00    0.04    1.00
  YS02001658YS02001655 CONDUIT    101.42     0  03:35      1.16    0.04    1.00
  YS02001661YS02001658 CONDUIT     61.98     0  04:23      1.30    0.02    0.84
  YS02001664YS02001661 CONDUIT     58.99     0  02:43      0.93    0.02    0.48
  YSB1154YSB6556       CONDUIT      9.52     0  02:18      0.19    0.02    0.43
  YSB1174YSB1171       CONDUIT      9.06     0  02:12      0.05    0.01    0.54
  YSB1171HS02004479    CONDUIT     17.76     0  02:20      0.54    0.01    0.41
  HS02004881HS02006253 CONDUIT     28.72     0  02:19      1.48    0.01    0.03
  YS02001793JiankangQianchi CONDUIT    800.18     0  02:51      1.65    0.06    0.81
  YS02001757CaochengTiaoxuchi CONDUIT    333.66     0  02:51      0.74    0.15    1.00
  WSF200WS02003060     CONDUIT    272.50     0  02:46      1.26    0.06    0.25
  1                    CONDUIT    578.46     0  02:49      2.86    0.20    0.30
  2                    CONDUIT      0.00     0  00:00      0.00    0.00    0.00
  3                    CONDUIT    253.97     0  02:26      8.28    0.40    0.47
  4                    CONDUIT      0.00     0  00:00      0.00    0.00    0.00
  CC-Pump-1            PUMP         0.00     0  00:00              0.00
  CC-Pump-2            PUMP         0.00     0  00:00              0.00
  JK-Pump-1            PUMP       300.00     0  02:26              1.00
  JK-Pump-2            PUMP         0.00     0  00:00              0.00
  XR-Pump-1            PUMP        95.00     0  00:00              1.00
  XR-Pump-2            PUMP        95.00     0  00:25              1.00
  XR-Pump-3            PUMP        95.00     0  02:08              1.00
  XR-Pump-4            PUMP         0.00     0  00:00              0.00
  
  
  ***************************
  Flow Classification Summary
  ***************************
  
  -------------------------------------------------------------------------------------
                      Adjusted    ---------- Fraction of Time in Flow Class ---------- 
                       /Actual         Up    Down  Sub   Sup   Up    Down  Norm  Inlet 
  Conduit               Length    Dry  Dry   Dry   Crit  Crit  Crit  Crit  Ltd   Ctrl  
  -------------------------------------------------------------------------------------
  WS02003066WSF200        1.00   0.14  0.00  0.00  0.00  0.86  0.00  0.00  0.69  0.00
  WS02006287WS02006284    1.00   0.04  0.03  0.00  0.62  0.31  0.00  0.00  0.79  0.00
  WS02006284WS02006280    1.00   0.05  0.00  0.00  0.00  0.00  0.00  0.95  0.00  0.00
  WS02006280WS02006229    1.00   0.05  0.00  0.00  0.00  0.00  0.00  0.95  0.00  0.00
  WS02006229WS02006228    1.00   0.00  0.00  0.00  1.00  0.00  0.00  0.00  0.00  0.00
  WS02006256WS02006235    1.00   0.08  0.00  0.00  0.85  0.06  0.00  0.00  0.05  0.00
  WS02006253WS02006251    1.00   0.02  0.02  0.00  0.95  0.00  0.01  0.00  0.00  0.00
  WS02006252WS02006251    1.00   1.00  0.00  0.00  0.00  0.00  0.00  0.00  0.00  0.00
  WS02006251WS02006249    1.00   0.00  0.00  0.00  1.00  0.00  0.00  0.00  0.98  0.00
  WS02006249WS02006248    1.00   0.00  0.01  0.00  0.00  0.00  0.99  0.00  0.00  0.00
  WS02006248WS02006247    1.00   0.01  0.00  0.00  0.97  0.00  0.00  0.02  0.87  0.00
  WS02006247WS02006245    1.00   0.01  0.00  0.00  0.95  0.00  0.00  0.04  0.00  0.00
  WS02006245WS02006243    1.00   0.01  0.00  0.00  0.86  0.00  0.00  0.13  0.11  0.00
  WS02006243WS02006242    1.00   0.02  0.00  0.00  0.93  0.00  0.00  0.05  0.56  0.00
  WS02006242WS02006240    1.00   0.02  0.05  0.00  0.92  0.00  0.01  0.00  0.01  0.00
  WS02006240WS02006239    1.00   0.07  0.00  0.00  0.81  0.00  0.00  0.12  0.09  0.00
  WS02006239WS02006238    1.00   0.07  0.00  0.00  0.92  0.00  0.00  0.01  0.03  0.00
  WS02006238WS02006235    1.00   0.07  0.01  0.00  0.92  0.00  0.00  0.00  0.00  0.00
  WS02006235WS02006234    1.00   0.09  0.01  0.00  0.81  0.00  0.09  0.00  0.00  0.00
  WS02006234WS02006232    1.00   0.10  0.00  0.00  0.90  0.00  0.00  0.00  0.01  0.00
  WS02006232WS02006231    1.00   0.10  0.01  0.00  0.87  0.00  0.02  0.00  0.01  0.00
  WS02006231WS02006230    1.00   0.11  0.00  0.00  0.10  0.00  0.79  0.00  0.00  0.00
  WS02006230WS02006229    1.00   0.00  0.00  0.00  0.99  0.00  0.00  0.01  0.03  0.00
  WS02006228WS02006109    1.00   0.00  0.00  0.00  1.00  0.00  0.00  0.00  0.00  0.00
  WS02006116WS02004401    1.00   0.04  0.00  0.00  0.96  0.00  0.00  0.00  0.01  0.00
  WS02006115WS02006116    1.00   0.04  0.00  0.00  0.92  0.00  0.00  0.04  0.00  0.00
  WS02006113WS02006111    1.00   0.02  0.00  0.00  0.01  0.96  0.00  0.00  0.11  0.00
  WS02006112WS02006115    1.00   0.03  0.01  0.00  0.96  0.00  0.00  0.00  0.00  0.00
  WS02006111WS02006112    1.00   0.03  0.00  0.00  0.97  0.00  0.00  0.00  0.92  0.00
  WS02006110WS02006113    1.00   0.00  0.02  0.00  0.98  0.00  0.00  0.00  0.00  0.00
  WS02006109WS02006110    1.00   0.00  0.00  0.00  0.99  0.00  0.00  0.00  0.00  0.00
  WS02004411WS02004412    1.00   0.11  0.00  0.00  0.89  0.00  0.00  0.00  0.00  0.00
  WS02004401WS02004402    1.00   0.04  0.00  0.00  0.96  0.00  0.00  0.00  0.04  0.00
  WS02004413WS02003067    1.00   0.12  0.02  0.00  0.00  0.00  0.87  0.00  0.00  0.00
  WS02004412WS02004413    1.00   0.11  0.00  0.00  0.88  0.00  0.00  0.00  0.00  0.00
  WS02004410WS02004411    1.00   0.11  0.00  0.00  0.89  0.00  0.00  0.00  0.00  0.00
  WS02004409WS02004410    1.00   0.11  0.00  0.00  0.89  0.00  0.00  0.00  0.00  0.00
  WS02004407WS02004409    1.00   0.11  0.00  0.00  0.88  0.01  0.00  0.00  0.72  0.00
  WS02004406WS02004407    1.00   0.00  0.11  0.00  0.89  0.00  0.00  0.00  0.00  0.00
  WS02004405WS02004406    1.00   0.00  0.00  0.00  1.00  0.00  0.00  0.00  0.04  0.00
  WS02004404WS02004405    1.00   0.00  0.00  0.00  1.00  0.00  0.00  0.00  0.01  0.00
  WS02004403WS02004404    1.00   0.00  0.04  0.00  0.96  0.00  0.00  0.00  0.04  0.00
  WS02004402WS02004403    1.00   0.04  0.00  0.00  0.96  0.00  0.00  0.00  0.00  0.00
  WS02004139WS02001211    1.00   0.00  0.00  0.00  1.00  0.00  0.00  0.00  0.00  0.00
  WS02004138WS02004139    1.00   0.00  0.00  0.00  1.00  0.00  0.00  0.00  1.00  0.00
  WS02003067WS02003066    1.00   0.13  0.00  0.00  0.86  0.00  0.00  0.00  0.00  0.00
  WS02001213WS02003059    1.00   0.00  0.00  0.00  1.00  0.00  0.00  0.00  0.00  0.00
  WS02001212WS02001213    1.00   0.00  0.00  0.00  0.20  0.00  0.80  0.00  0.00  0.00
  WS02001211WS02001212    1.00   0.00  0.00  0.00  1.00  0.00  0.00  0.00  0.00  0.00
  WS02003072WS02003073    1.00   0.00  0.00  0.00  0.00  0.00  0.00  1.00  0.00  0.00
  WS02003069WS02003072    1.00   0.00  0.00  0.00  1.00  0.00  0.00  0.00  0.69  0.00
  WS02003060WS02003069    1.00   0.00  0.00  0.00  0.99  0.01  0.00  0.00  0.37  0.00
  WS02003059WS02003060    1.00   0.00  0.00  0.00  1.00  0.00  0.00  0.00  0.02  0.00
  HS02004901HS02004770    1.00   0.05  0.00  0.00  0.95  0.00  0.00  0.00  0.03  0.00
  HS02004876HS02004881    1.00   0.01  0.00  0.00  0.99  0.00  0.00  0.00  0.00  0.00
  HS02004870HS02004876    1.00   0.00  0.00  0.00  1.00  0.00  0.00  0.00  0.95  0.00
  HS02004842HS02004848    1.00   0.00  0.05  0.00  0.95  0.00  0.00  0.00  0.70  0.00
  HS02004837HS02004842    1.00   0.00  0.00  0.00  1.00  0.00  0.00  0.00  0.11  0.00
  HS02004830HS02004837    1.00   0.00  0.00  0.00  1.00  0.00  0.00  0.00  0.99  0.00
  HS02004824HS02004830    1.00   0.00  0.00  0.00  1.00  0.00  0.00  0.00  0.00  0.00
  HS02004817HS02004824    1.00   0.00  0.00  0.00  1.00  0.00  0.00  0.00  1.00  0.00
  HS02004770HS02004777    1.00   0.00  0.05  0.00  0.95  0.00  0.00  0.00  0.08  0.00
  HS02004799HS02004480    1.00   0.00  0.01  0.00  0.92  0.00  0.06  0.00  0.00  0.00
  HS02004792HS02004799    1.00   0.00  0.00  0.00  1.00  0.00  0.00  0.00  0.98  0.00
  HS02004788HS02004792    1.00   0.00  0.00  0.00  1.00  0.00  0.00  0.00  0.98  0.00
  HS02004785HS02004788    1.00   0.00  0.00  0.00  1.00  0.00  0.00  0.00  0.00  0.00
  HS02004777HS02004785    1.00   0.00  0.00  0.00  1.00  0.00  0.00  0.00  0.21  0.00
  HS02004480HS02004478    1.00   0.06  0.00  0.00  0.65  0.00  0.00  0.29  0.00  0.00
  HS02004479HS02004480    1.00   0.01  0.00  0.00  0.99  0.00  0.00  0.00  0.16  0.00
  HS02004862HS02004870    1.00   0.00  0.00  0.00  1.00  0.00  0.00  0.00  0.05  0.00
  HS02004848HS02004852    1.00   0.05  0.00  0.00  0.95  0.00  0.00  0.00  0.70  0.00
  HS02004856HS02004862    1.00   0.00  0.10  0.00  0.90  0.00  0.00  0.00  0.74  0.00
  HS02004852HS02004856    1.00   0.05  0.02  0.00  0.93  0.00  0.00  0.00  0.82  0.00
  HS02004802HS02004478    1.00   0.05  0.01  0.00  0.93  0.00  0.00  0.00  0.00  0.00
  HS02004478WS02006287    1.00   0.07  0.00  0.00  0.90  0.02  0.00  0.00  0.81  0.00
  HS02004817HS02004807    1.00   0.00  0.05  0.00  0.95  0.00  0.00  0.00  0.00  0.00
  HS02004807HS02004802    1.00   0.05  0.00  0.00  0.94  0.00  0.00  0.00  0.01  0.00
  YS02001759YS02001757    1.00   0.00  0.00  0.00  1.00  0.00  0.00  0.00  0.17  0.00
  YS02001762YS02001759    1.00   0.00  0.00  0.00  1.00  0.00  0.00  0.00  0.05  0.00
  YS02001765YS02001762    1.00   0.00  0.00  0.00  1.00  0.00  0.00  0.00  0.23  0.00
  YS02001770YS02001767    1.00   0.00  0.00  0.00  1.00  0.00  0.00  0.00  0.00  0.00
  YS02001774YS02001770    1.00   0.00  0.07  0.00  0.93  0.00  0.00  0.00  0.07  0.00
  YS02001779YS02001774    1.00   0.00  0.00  0.00  1.00  0.00  0.00  0.00  0.27  0.00
  YS02001649YS02001757    1.00   0.00  0.00  0.00  1.00  0.00  0.00  0.00  0.19  0.00
  YS02001767YS02001765    1.00   0.00  0.00  0.00  1.00  0.00  0.00  0.00  0.01  0.00
  YS02006561YS02001783    1.00   0.10  0.00  0.00  0.00  0.90  0.00  0.00  0.73  0.00
  YS02001783YS02001784    1.00   0.00  0.10  0.00  0.90  0.00  0.00  0.00  0.03  0.00
  YS02001784YS02001785    1.00   0.00  0.00  0.00  1.00  0.00  0.00  0.00  0.26  0.00
  YS02001788YS02001790    1.00   0.00  0.00  0.00  0.11  0.89  0.00  0.00  0.87  0.00
  YS02001790YS02001791    1.00   0.00  0.00  0.00  0.01  0.99  0.00  0.00  0.42  0.00
  YS02001791YS02001793    1.00   0.00  0.00  0.00  0.19  0.81  0.00  0.00  0.27  0.00
  YS02001910YS02001907    1.00   0.00  0.00  0.00  0.99  0.00  0.00  0.01  0.13  0.00
  YS02001786YS02001788    1.00   0.00  0.00  0.00  0.12  0.88  0.00  0.00  0.00  0.00
  YS02001915YS02001910    1.00   0.00  0.00  0.00  1.00  0.00  0.00  0.00  0.25  0.00
  YS02001918YS02001915    1.00   0.00  0.00  0.00  0.99  0.01  0.00  0.00  0.81  0.00
  YS02001923YS02001920    1.00   0.00  0.00  0.00  1.00  0.00  0.00  0.00  1.00  0.00
  YS02001926YS02001923    1.00   0.00  0.03  0.00  0.00  0.00  0.97  0.00  0.00  0.00
  YS02001929YS02001926    1.00   0.00  0.05  0.00  0.95  0.00  0.00  0.00  0.86  0.00
  YS02001920YS02001918    1.00   0.00  0.00  0.00  1.00  0.00  0.00  0.00  0.00  0.00
  YS02001629YS02163301    1.00   0.09  0.01  0.00  0.90  0.00  0.00  0.00  0.00  0.00
  YS02001619YS02001622    1.00   0.05  0.00  0.00  0.95  0.00  0.00  0.00  0.00  0.00
  YS02001622YS02001625    1.00   0.05  0.00  0.00  0.95  0.00  0.00  0.00  0.13  0.00
  YS02001625YS02001629    1.00   0.05  0.06  0.00  0.87  0.00  0.03  0.00  0.00  0.00
  YS02163301YS02001633    1.00   0.00  0.09  0.00  0.91  0.00  0.00  0.00  0.00  0.00
  YS02163601YS02164001    1.00   0.00  0.03  0.00  0.97  0.00  0.00  0.00  0.00  0.00
  YS02164001YS02001641    1.00   0.00  0.03  0.00  0.97  0.00  0.00  0.00  0.07  0.00
  YS02001641YS02001644    1.00   0.00  0.00  0.00  1.00  0.00  0.00  0.00  0.00  0.00
  YS02001647YS02001649    1.00   0.00  0.10  0.00  0.90  0.00  0.00  0.00  0.01  0.00
  YS02006553YS02006556    1.00   0.00  0.00  0.00  1.00  0.00  0.00  0.00  0.03  0.00
  YS02006556YS02006558    1.00   0.00  0.00  0.00  1.00  0.00  0.00  0.00  0.00  0.00
  YSB6556YSB1171          1.00   0.02  0.03  0.00  0.95  0.00  0.00  0.00  0.00  0.00
  YS02001907YS02006553    1.00   0.00  0.01  0.00  0.99  0.00  0.00  0.00  0.00  0.00
  YS02006558YS02006561    1.00   0.10  0.00  0.00  0.00  0.90  0.00  0.00  0.72  0.00
  YS02001633YS02163601    1.00   0.00  0.00  0.00  1.00  0.00  0.00  0.00  0.20  0.00
  YS02001644YS02001647    1.00   0.00  0.10  0.00  0.90  0.00  0.00  0.00  0.00  0.00
  YS02001745YS02001748    1.00   0.00  0.00  0.00  0.69  0.08  0.00  0.24  0.18  0.00
  YS02001748YS02001751    1.00   0.00  0.00  0.00  0.95  0.05  0.00  0.00  0.26  0.00
  YS02001751YS02001754    1.00   0.00  0.00  0.00  0.88  0.00  0.00  0.11  0.02  0.00
  YS02001754YS02001757    1.00   0.00  0.00  0.00  1.00  0.00  0.00  0.00  0.27  0.00
  YS02001882YS02001884    1.00   0.08  0.01  0.00  0.91  0.00  0.00  0.00  0.00  0.00
  YS02001884YS02001887    1.00   0.02  0.02  0.00  0.96  0.00  0.00  0.00  0.00  0.00
  YS02001890YS02001895    1.00   0.00  0.09  0.00  0.91  0.00  0.00  0.00  0.00  0.00
  YS02001895YS02001898    1.00   0.09  0.00  0.00  0.89  0.00  0.01  0.00  0.00  0.00
  YS02001898YS02001901    1.00   0.09  0.01  0.00  0.90  0.00  0.00  0.00  0.02  0.00
  YS02001901YS02001904    1.00   0.09  0.00  0.00  0.91  0.00  0.00  0.00  0.00  0.00
  YS02001904YS02001907    1.00   0.00  0.09  0.00  0.91  0.00  0.00  0.00  0.00  0.00
  YS02001887YS02001890    1.00   0.00  0.00  0.00  0.99  0.00  0.01  0.00  0.00  0.00
  YS02001652YS02001649    1.00   0.00  0.00  0.00  1.00  0.00  0.00  0.00  0.26  0.00
  YS02001655YS02001652    1.00   0.00  0.00  0.00  0.88  0.00  0.00  0.11  0.02  0.00
  YS02001658YS02001655    1.00   0.00  0.07  0.00  0.88  0.05  0.00  0.00  0.15  0.00
  YS02001661YS02001658    1.00   0.07  0.00  0.00  0.69  0.24  0.00  0.00  0.24  0.00
  YS02001664YS02001661    1.00   0.05  0.00  0.00  0.95  0.00  0.00  0.00  0.66  0.00
  YSB1154YSB6556          1.00   0.05  0.00  0.00  0.95  0.00  0.00  0.00  0.02  0.00
  YSB1174YSB1171          1.00   0.02  0.02  0.00  0.96  0.00  0.00  0.00  0.00  0.00
  YSB1171HS02004479       1.00   0.01  0.00  0.00  0.98  0.00  0.00  0.00  0.13  0.00
  HS02004881HS02006253    1.00   0.02  0.00  0.00  0.00  0.00  0.00  0.98  0.00  0.00
  YS02001793JiankangQianchi    1.00   0.00  0.00  0.00  1.00  0.00  0.00  0.00  0.71  0.00
  YS02001757CaochengTiaoxuchi    1.00   0.00  0.13  0.00  0.87  0.00  0.00  0.00  0.00  0.00
  WSF200WS02003060        1.00   0.00  0.14  0.00  0.86  0.00  0.00  0.00  0.69  0.00
  1                       1.00   0.00  0.00  0.00  0.00  1.00  0.00  0.00  0.22  0.00
  2                       1.00   1.00  0.00  0.00  0.00  0.00  0.00  0.00  0.00  0.00
  3                       1.00   0.34  0.00  0.00  0.00  0.66  0.00  0.00  0.03  0.00
  4                       1.00   1.00  0.00  0.00  0.00  0.00  0.00  0.00  0.00  0.00
  
  
  *************************
  Conduit Surcharge Summary
  *************************
  
  ----------------------------------------------------------------------------
                                                           Hours        Hours 
                         --------- Hours Full --------   Above Full   Capacity
  Conduit                Both Ends  Upstream  Dnstream   Normal Flow   Limited
  ----------------------------------------------------------------------------
  WS02006256WS02006235        1.71      1.74      5.25      2.05         0.01
  WS02006235WS02006234        0.01      0.01      0.01      1.77         0.01
  WS02006231WS02006230        0.01      0.01      0.01      2.09         0.01
  WS02006230WS02006229        0.01      0.01      0.01      3.31         0.01
  WS02006228WS02006109        0.01      0.01      0.01      0.31         0.01
  WS02004404WS02004405        0.01      0.01      0.01      2.01         0.01
  WS02003072WS02003073        0.01      0.01      0.01      1.07         0.01
  YS02001759YS02001757        4.52      4.52      4.97      0.01         0.01
  YS02001762YS02001759        4.39      4.39      4.52      0.01         0.01
  YS02001765YS02001762        4.19      4.19      4.39      0.01         0.01
  YS02001770YS02001767        4.04      4.04      4.07      0.01         0.14
  YS02001774YS02001770        3.92      3.92      4.31      0.01         0.01
  YS02001779YS02001774        3.21      3.21      4.31      0.01         0.01
  YS02001649YS02001757        4.43      4.43      4.97      0.01         0.01
  YS02001767YS02001765        4.06      4.06      4.19      0.01         0.01
  YS02001629YS02163301        3.84      3.84      3.96      0.01         0.01
  YS02001619YS02001622        1.91      1.91      2.04      0.01         0.01
  YS02001622YS02001625        2.04      2.04      3.61      0.01         0.01
  YS02001625YS02001629        1.91      1.91      3.61      0.01         0.01
  YS02163301YS02001633        3.96      3.96      4.19      0.01         0.01
  YS02163601YS02164001        4.18      4.18      4.40      0.01         0.01
  YS02164001YS02001641        4.18      4.18      4.25      0.01         0.01
  YS02001641YS02001644        4.25      4.25      4.27      0.01         0.14
  YS02001647YS02001649        3.56      3.56      4.43      0.01         0.01
  YS02001633YS02163601        4.12      4.12      4.40      0.01         0.01
  YS02001644YS02001647        3.56      3.56      4.27      0.01         0.01
  YS02001748YS02001751        0.71      0.71      2.22      0.01         0.01
  YS02001751YS02001754        2.22      2.22      3.37      0.01         0.01
  YS02001754YS02001757        3.58      3.58      4.97      0.01         0.01
  YS02001652YS02001649        3.65      3.65      4.43      0.01         0.01
  YS02001655YS02001652        2.38      2.38      3.49      0.01         0.01
  YS02001658YS02001655        0.07      0.07      2.38      0.01         0.01
  YS02001661YS02001658        0.01      0.01      0.07      0.01         0.01
  YS02001793JiankangQianchi        0.01      0.01      7.82      0.01         0.01
  YS02001757CaochengTiaoxuchi        1.36      1.36      4.97      0.01         0.01
  
  
  ***************
  Pumping Summary
  ***************
  
  ---------------------------------------------------------------------------------------------------------
                                                  Min       Avg       Max     Total     Power    % Time Off
                        Percent   Number of      Flow      Flow      Flow    Volume     Usage    Pump Curve
  Pump                 Utilized   Start-Ups       LPS       LPS       LPS  10^6 ltr     Kw-hr    Low   High
  ---------------------------------------------------------------------------------------------------------
  CC-Pump-1                0.00           0      0.00      0.00      0.00     0.000      0.00    0.0    0.0
  CC-Pump-2                0.00           0      0.00      0.00      0.00     0.000      0.00    0.0    0.0
  JK-Pump-1               26.43          14      0.00    300.00    300.00     2.236     19.93    0.0    0.0
  JK-Pump-2                0.00           0      0.00      0.00      0.00     0.000      0.00    0.0    0.0
  XR-Pump-1              100.00           1      0.00     95.00     95.00     2.679     20.50    0.0    0.0
  XR-Pump-2               94.70           1      0.00     95.00     95.00     2.537     19.08    0.0    0.0
  XR-Pump-3               44.58           5      0.00     95.00     95.00     1.194      8.94    0.0    0.0
  XR-Pump-4                0.00           0      0.00      0.00      0.00     0.000      0.00    0.0    0.0
  

  Analysis begun on:  Thu Jan  6 01:11:55 2022
  Analysis ended on:  Thu Jan  6 01:11:57 2022
  Total elapsed time: 00:00:02