
  EPA STORM WATER MANAGEMENT MODEL - VERSION 5.1 (Build 5.3.0.dev0)
  --------------------------------------------------------------

  WARNING 04: minimum elevation drop used for Conduit WS02004404WS02004405
  WARNING 03: negative offset ignored for Link YS02001904YS02001907
  
  *********************************************************
  NOTE: The summary statistics displayed in this report are
  based on results found at every computational time step,  
  not just on results from each reporting time step.
  *********************************************************
  
  ****************
  Analysis Options
  ****************
  Flow Units ............... LPS
  Process Models:
    Rainfall/Runoff ........ YES
    RDII ................... NO
    Snowmelt ............... NO
    Groundwater ............ NO
    Flow Routing ........... YES
    Ponding Allowed ........ NO
    Water Quality .......... NO
  Infiltration Method ...... HORTON
  Flow Routing Method ...... DYNWAVE
  Surcharge Method ......... EXTRAN
  Starting Date ............ 08/28/2015 08:00:00
  Ending Date .............. 08/28/2015 15:50:00
  Antecedent Dry Days ...... 8.0
  Report Time Step ......... 00:01:00
  Wet Time Step ............ 00:01:00
  Dry Time Step ............ 00:01:00
  Routing Time Step ........ 5.00 sec
  Variable Time Step ....... YES
  Maximum Trials ........... 8
  Number of Threads ........ 4
  Head Tolerance ........... 0.001500 m
  
  
  **************************        Volume         Depth
  Runoff Quantity Continuity     hectare-m            mm
  **************************     ---------       -------
  Total Precipitation ......         2.330         5.102
  Evaporation Loss .........         0.000         0.000
  Infiltration Loss ........         0.581         1.272
  Surface Runoff ...........         0.900         1.971
  Final Storage ............         0.849         1.860
  Continuity Error (%) .....        -0.018
  
  
  **************************        Volume        Volume
  Flow Routing Continuity        hectare-m      10^6 ltr
  **************************     ---------     ---------
  Dry Weather Inflow .......         0.616         6.165
  Wet Weather Inflow .......         0.900         8.996
  Groundwater Inflow .......         0.000         0.000
  RDII Inflow ..............         0.000         0.000
  External Inflow ..........         0.102         1.024
  External Outflow .........         1.244        12.438
  Flooding Loss ............         0.196         1.962
  Evaporation Loss .........         0.000         0.000
  Exfiltration Loss ........         0.000         0.000
  Initial Stored Volume ....         0.076         0.761
  Final Stored Volume ......         0.309         3.091
  Continuity Error (%) .....        -3.225
  
  
  *************************
  Highest Continuity Errors
  *************************
  Node HS02004842 (31.75%)
  Node YS02001884 (26.12%)
  Node JK-storage (-15.41%)
  Node YS02001774 (8.94%)
  Node YSB1171 (8.28%)
  
  
  ***************************
  Time-Step Critical Elements
  ***************************
  Link WS02006252WS02006251 (61.51%)
  Link 3 (26.02%)
  Link WS02006238WS02006235 (3.91%)
  Link WS02006280WS02006229 (2.84%)
  Link 2 (1.29%)
  
  
  ********************************
  Highest Flow Instability Indexes
  ********************************
  Link WS02006113WS02006111 (49)
  Link WS02006111WS02006112 (18)
  Link YS02001754YS02001757 (3)
  Link YS02001762YS02001759 (3)
  Link YS02001765YS02001762 (2)
  
  
  *************************
  Routing Time Step Summary
  *************************
  Minimum Time Step           :     0.50 sec
  Average Time Step           :     0.99 sec
  Maximum Time Step           :     5.00 sec
  Percent in Steady State     :    -0.00
  Average Iterations per Step :     2.03
  Percent Not Converging      :     0.24
  
  
  ***************************
  Subcatchment Runoff Summary
  ***************************
  
  ------------------------------------------------------------------------------------------------------------------------------
                            Total      Total      Total      Total     Imperv       Perv      Total       Total     Peak  Runoff
                           Precip      Runon       Evap      Infil     Runoff     Runoff     Runoff      Runoff   Runoff   Coeff
  Subcatchment                 mm         mm         mm         mm         mm         mm         mm    10^6 ltr      LPS
  ------------------------------------------------------------------------------------------------------------------------------
  sub0                       5.10       0.00       0.00       0.36       3.48       0.00       3.48        0.00     1.20   0.682
  sub1                       5.10       0.00       0.00       0.56       3.29       0.00       3.29        0.02     6.06   0.644
  sub2                       5.10       0.00       0.00       1.89       2.31       0.00       2.31        0.02     5.32   0.453
  sub3                       5.10       0.00       0.00       1.89       2.28       0.00       2.28        0.05    10.83   0.446
  sub4                       5.10       0.00       0.00       0.56       3.15       0.00       3.15        0.07    12.04   0.618
  sub5                       5.10       0.00       0.00       0.36       3.43       0.00       3.43        0.04    10.78   0.673
  sub7                       5.10       0.00       0.00       0.46       3.39       0.00       3.39        0.01     3.87   0.664
  sub8                       5.10       0.00       0.00       0.46       3.38       0.00       3.38        0.02     6.78   0.662
  sub9                       5.10       0.00       0.00       0.46       3.38       0.00       3.38        0.02     5.02   0.662
  sub10                      5.10       0.00       0.00       0.41       3.40       0.00       3.40        0.04    10.80   0.667
  sub11                      5.10       0.00       0.00       0.41       3.42       0.00       3.42        0.04    12.78   0.670
  sub12                      5.10       0.00       0.00       0.66       3.25       0.00       3.25        0.03    11.00   0.637
  sub14                      5.10       0.00       0.00       0.46       3.38       0.00       3.38        0.03     9.80   0.662
  sub15                      5.10       0.00       0.00       1.53       2.59       0.00       2.59        0.04    13.26   0.508
  sub16                      5.10       0.00       0.00       1.68       2.50       0.00       2.50        0.03     9.62   0.490
  sub17                      5.10       0.00       0.00       1.63       2.54       0.00       2.54        0.02     7.75   0.497
  sub22                      5.10       0.00       0.00       2.19       2.12       0.00       2.12        0.13    43.78   0.416
  sub23                      5.10       0.00       0.00       1.89       2.34       0.00       2.34        0.11    37.34   0.460
  sub60                      5.10       0.00       0.00       0.61       2.17       0.00       2.17        0.66    58.39   0.426
  sub61                      5.10       0.00       0.00       0.87       2.36       0.00       2.36        0.73    74.03   0.462
  sub62                      5.10       0.00       0.00       0.41       2.52       0.00       2.52        0.77    75.41   0.493
  sub63                      5.10       0.00       0.00       1.48       2.11       0.00       2.11        0.64    69.41   0.413
  sub64                      5.10       0.00       0.00       0.77       2.08       0.00       2.08        0.63    55.41   0.407
  sub65                      5.10       0.00       0.00       0.66       2.10       0.00       2.10        0.65    56.17   0.412
  sub66                      5.10       0.00       0.00       1.48       1.82       0.00       1.82        0.56    50.96   0.357
  sub67                      5.10       0.00       0.00       0.41       2.80       0.00       2.80        0.86    97.83   0.549
  sub68                      5.10       0.00       0.00       0.71       2.52       0.00       2.52        0.77    82.08   0.493
  sub69                      5.10       0.00       0.00       0.77       2.75       0.00       2.75        0.64    82.58   0.539
  sub70                      5.10       2.80       0.00       2.69       3.28       0.00       3.28        0.75    63.61   0.415
  sub71                      5.10       0.00       0.00       0.41       2.40       0.00       2.40        0.57    52.44   0.470
  sub72                      5.10       0.00       0.00       0.36       1.64       0.00       1.64        0.33    24.24   0.322
  sub73                      5.10       3.20       0.00       2.82       3.28       0.00       3.28        0.77    54.28   0.395
  sub74                      5.10       0.00       0.00       3.83       0.83       0.00       0.83        0.33    46.31   0.163
  
  
  ******************
  Node Depth Summary
  ******************
  
  ---------------------------------------------------------------------------------
                                 Average  Maximum  Maximum  Time of Max    Reported
                                   Depth    Depth      HGL   Occurrence   Max Depth
  Node                 Type       Meters   Meters   Meters  days hr:min      Meters
  ---------------------------------------------------------------------------------
  WS02001211           JUNCTION     0.58     0.75     5.59     0  03:13        0.75
  WS02001212           JUNCTION     0.32     0.46     5.52     0  03:13        0.46
  WS02001213           JUNCTION     0.55     0.70     5.46     0  03:14        0.70
  WS02003069           JUNCTION     0.38     0.50     5.08     0  03:15        0.50
  WS02003072           JUNCTION     0.45     0.56     4.94     0  03:15        0.56
  WS02003073           JUNCTION     0.26     0.34     4.41     0  03:16        0.34
  WS02003060           JUNCTION     0.34     0.44     5.38     0  03:14        0.44
  WS02003066           JUNCTION     0.21     0.28     5.83     0  02:47        0.28
  WS02003059           JUNCTION     0.61     0.75     5.44     0  03:14        0.75
  WS02003067           JUNCTION     0.53     0.67     5.99     0  02:47        0.67
  WS02004401           JUNCTION     0.62     0.79     6.79     0  02:44        0.79
  WS02004402           JUNCTION     0.65     0.82     6.78     0  02:44        0.82
  WS02004403           JUNCTION     0.67     0.84     6.77     0  02:44        0.84
  WS02004404           JUNCTION     0.75     0.92     6.77     0  02:44        0.92
  WS02004406           JUNCTION     0.76     0.92     6.75     0  02:44        0.92
  WS02004409           JUNCTION     0.44     0.61     6.38     0  02:46        0.61
  WS02004410           JUNCTION     0.46     0.63     6.35     0  02:46        0.63
  WS02004411           JUNCTION     0.48     0.64     6.32     0  02:47        0.64
  WS02004412           JUNCTION     0.49     0.65     6.29     0  02:47        0.65
  WS02004413           JUNCTION     0.65     0.82     6.29     0  02:47        0.81
  WS02004405           JUNCTION     0.75     0.91     6.76     0  02:44        0.91
  WS02006109           JUNCTION     0.69     0.89     7.51     0  02:38        0.89
  WS02006110           JUNCTION     0.69     0.87     7.45     0  02:38        0.87
  WS02006111           JUNCTION     0.20     0.27     6.97     0  02:39        0.27
  WS02006112           JUNCTION     0.78     0.98     6.86     0  02:43        0.98
  WS02006113           JUNCTION     0.30     0.42     7.31     0  02:39        0.42
  WS02006115           JUNCTION     0.51     0.69     6.83     0  02:43        0.69
  WS02006116           JUNCTION     0.59     0.77     6.81     0  02:44        0.77
  WS02006230           JUNCTION     0.63     0.91     7.65     0  02:38        0.91
  WS02006231           JUNCTION     0.42     0.59     7.72     0  02:39        0.59
  WS02006232           JUNCTION     0.55     0.74     7.78     0  03:32        0.74
  WS02006234           JUNCTION     0.46     0.69     7.84     0  03:32        0.69
  WS02006235           JUNCTION     0.49     0.72     7.89     0  03:32        0.72
  WS02006238           JUNCTION     0.52     0.75     7.90     0  03:32        0.75
  WS02006240           JUNCTION     0.41     0.68     7.98     0  03:32        0.68
  WS02006242           JUNCTION     0.47     0.75     8.02     0  03:32        0.75
  WS02006243           JUNCTION     0.35     0.64     8.06     0  03:31        0.64
  WS02006245           JUNCTION     0.34     0.61     8.10     0  03:31        0.61
  WS02006247           JUNCTION     0.36     0.63     8.13     0  03:31        0.63
  WS02006248           JUNCTION     0.31     0.57     8.16     0  02:40        0.57
  WS02006249           JUNCTION     0.35     0.60     8.19     0  02:40        0.60
  WS02006239           JUNCTION     0.47     0.73     7.94     0  03:32        0.73
  WS02006251           JUNCTION     0.34     0.63     8.30     0  02:40        0.63
  WS02006252           JUNCTION     0.31     0.59     8.83     0  05:50        0.58
  WS02006253           JUNCTION     0.36     0.65     8.30     0  02:40        0.65
  WS02006256           JUNCTION     0.91     1.19     8.13     0  03:20        1.19
  WS02004138           JUNCTION     0.12     0.19     7.44     0  03:10        0.19
  WS02004407           JUNCTION     0.20     0.27     6.59     0  02:45        0.27
  WS02006228           JUNCTION     0.67     0.91     7.57     0  02:38        0.91
  WS02006229           JUNCTION     0.65     0.90     7.60     0  02:38        0.90
  WS02006280           JUNCTION     0.05     0.13     8.40     0  02:20        0.13
  WS02006284           JUNCTION     0.34     0.46     8.86     0  02:20        0.46
  WS02006287           JUNCTION     0.07     0.19     9.15     0  02:19        0.19
  WSF200               JUNCTION     0.19     0.28     5.52     0  02:46        0.28
  HS02004901           JUNCTION     0.10     0.21    10.04     0  02:18        0.21
  HS02004881           JUNCTION     0.00     0.02     9.05     0  02:19        0.02
  HS02004876           JUNCTION     0.03     0.10     9.13     0  02:18        0.10
  HS02004870           JUNCTION     0.01     0.04     9.32     0  02:19        0.04
  HS02004862           JUNCTION     0.01     0.04     9.43     0  02:20        0.04
  HS02004856           JUNCTION     0.07     0.10     9.53     0  02:20        0.10
  HS02004852           JUNCTION     0.01     0.02     9.54     0  02:20        0.02
  HS02004848           JUNCTION     0.01     0.02     9.62     0  02:18        0.02
  HS02004842           JUNCTION     0.32     0.35     9.62     0  02:18        0.35
  HS02004837           JUNCTION     0.02     0.04     9.62     0  02:18        0.04
  HS02004830           JUNCTION     0.03     0.06     9.53     0  02:19        0.06
  HS02004824           JUNCTION     0.02     0.04     9.44     0  02:22        0.04
  HS02004817           JUNCTION     0.42     0.51     9.36     0  02:20        0.51
  HS02004807           JUNCTION     0.11     0.18     9.35     0  02:20        0.18
  HS02004802           JUNCTION     0.14     0.22     9.35     0  02:20        0.22
  HS02004799           JUNCTION     0.09     0.23     9.44     0  02:18        0.23
  HS02004792           JUNCTION     0.02     0.09     9.61     0  02:17        0.09
  HS02004788           JUNCTION     0.02     0.06     9.96     0  02:18        0.06
  HS02004785           JUNCTION     0.03     0.12    10.02     0  02:18        0.12
  HS02004777           JUNCTION     0.13     0.24    10.03     0  02:18        0.24
  HS02004770           JUNCTION     0.10     0.21    10.04     0  02:18        0.21
  HS02004480           JUNCTION     0.06     0.18     9.42     0  02:18        0.18
  HS02004479           JUNCTION     0.09     0.22     9.42     0  02:18        0.22
  HS02004478           JUNCTION     0.05     0.11     9.34     0  02:19        0.11
  YS02001745           JUNCTION     0.07     0.10     7.62     0  03:01        0.10
  YS02001748           JUNCTION     0.23     0.36     7.44     0  04:14        0.36
  YS02001751           JUNCTION     0.41     0.56     7.44     0  04:13        0.55
  YS02001754           JUNCTION     0.65     0.84     7.44     0  04:12        0.83
  YS02001762           JUNCTION     0.85     0.99     7.39     0  04:10        0.99
  YS02001765           JUNCTION     0.80     0.94     7.39     0  04:10        0.94
  YS02001767           JUNCTION     0.77     0.91     7.40     0  04:11        0.91
  YS02001770           JUNCTION     0.76     0.89     7.39     0  04:15        0.89
  YS02001774           JUNCTION     0.83     0.97     7.39     0  04:15        0.97
  YS02001779           JUNCTION     0.58     0.71     7.40     0  04:12        0.71
  YS02001882           JUNCTION     0.26     0.40     7.11     0  02:53        0.40
  YS02001884           JUNCTION     0.35     0.50     7.11     0  02:53        0.50
  YS02001759           JUNCTION     0.88     1.04     7.40     0  04:08        1.03
  YS02001887           JUNCTION     0.43     0.58     7.11     0  02:53        0.58
  YS02001890           JUNCTION     0.46     0.61     7.11     0  02:54        0.61
  YS02001898           JUNCTION     0.23     0.36     7.10     0  02:54        0.36
  YS02001901           JUNCTION     0.35     0.49     7.10     0  02:54        0.49
  YS02001904           JUNCTION     0.33     0.46     7.09     0  02:55        0.46
  YS02001907           JUNCTION     0.65     0.81     7.10     0  02:55        0.81
  YS02001910           JUNCTION     0.44     0.59     7.10     0  02:55        0.59
  YS02001915           JUNCTION     0.25     0.38     7.09     0  02:55        0.38
  YS02001918           JUNCTION     0.07     0.09     7.15     0  03:03        0.09
  YS02001619           JUNCTION     0.37     0.48     7.41     0  04:10        0.48
  YS02001629           JUNCTION     0.71     0.85     7.40     0  04:12        0.85
  YS02001641           JUNCTION     0.81     0.97     7.41     0  04:12        0.96
  YS02001644           JUNCTION     0.82     0.97     7.41     0  04:15        0.97
  YS02001652           JUNCTION     0.67     0.83     7.43     0  04:12        0.83
  YS02001655           JUNCTION     0.43     0.59     7.44     0  04:13        0.58
  YS02001920           JUNCTION     0.16     0.19     7.20     0  03:03        0.19
  YS02001923           JUNCTION     0.06     0.07     7.33     0  03:02        0.07
  YS02001926           JUNCTION     0.13     0.16     7.60     0  03:01        0.16
  YS02001929           JUNCTION     0.06     0.08     7.77     0  03:01        0.08
  YS02001658           JUNCTION     0.17     0.28     7.43     0  04:12        0.28
  YS02001661           JUNCTION     0.13     0.18     7.59     0  02:46        0.18
  YS02001664           JUNCTION     0.06     0.10     8.03     0  02:46        0.10
  YS02001622           JUNCTION     0.39     0.48     7.39     0  04:13        0.48
  YS02001633           JUNCTION     0.80     0.95     7.40     0  04:14        0.94
  YS02001649           JUNCTION     0.86     1.00     7.39     0  04:13        1.00
  YS02001757           JUNCTION     0.98     1.14     7.40     0  04:11        1.13
  YS02001895           JUNCTION     0.23     0.36     7.11     0  02:54        0.36
  YS02001625           JUNCTION     0.66     0.80     7.41     0  04:13        0.80
  YS02163301           JUNCTION     0.74     0.89     7.41     0  04:11        0.89
  YS02163601           JUNCTION     0.85     1.00     7.39     0  04:12        0.99
  YS02164001           JUNCTION     0.79     0.94     7.40     0  04:12        0.93
  YS02001647           JUNCTION     0.65     0.78     7.39     0  04:14        0.78
  YSB1154              JUNCTION     0.23     0.36     9.42     0  02:18        0.36
  YSB6556              JUNCTION     0.13     0.25     9.42     0  02:18        0.25
  YSB1174              JUNCTION     0.18     0.31     9.42     0  02:18        0.31
  YSB1171              JUNCTION     0.38     0.52     9.42     0  02:18        0.52
  YS02006553           JUNCTION     0.66     0.81     7.09     0  02:54        0.81
  YS02006561           JUNCTION     0.13     0.20     6.86     0  02:55        0.20
  YS02006556           JUNCTION     0.63     0.78     7.09     0  02:55        0.78
  YS02006558           JUNCTION     0.67     0.82     7.09     0  02:55        0.82
  YS02001783           JUNCTION     0.22     0.62     6.76     0  02:50        0.56
  YS02001784           JUNCTION     0.26     0.67     6.74     0  02:50        0.66
  YS02001786           JUNCTION     0.23     0.68     6.71     0  02:51        0.66
  YS02001788           JUNCTION     0.17     0.71     6.69     0  02:49        0.69
  YS02001790           JUNCTION     0.23     1.57     7.21     0  02:47        1.00
  YS02001791           JUNCTION     0.19     1.43     6.90     0  02:47        1.15
  YS02001793           JUNCTION     0.22     2.42     7.25     0  02:43        1.78
  WS02004139           JUNCTION     0.52     0.70     5.61     0  03:12        0.70
  WSC                  OUTFALL      0.26     0.34     1.01     0  03:16        0.34
  3                    OUTFALL      0.05     0.19     6.19     0  03:20        0.19
  4                    OUTFALL      0.01     0.10     7.10     0  02:40        0.10
  5                    OUTFALL      0.00     0.00     5.00     0  00:00        0.00
  JK-storage           STORAGE      1.19     5.80     6.60     0  02:49        5.80
  CC-storage           STORAGE      0.25     0.36     7.36     0  05:09        0.36
  XR-storage           STORAGE      7.57     7.72     5.72     0  01:18        7.72
  
  
  *******************
  Node Inflow Summary
  *******************
  
  -------------------------------------------------------------------------------------------------
                                  Maximum  Maximum                  Lateral       Total        Flow
                                  Lateral    Total  Time of Max      Inflow      Inflow     Balance
                                   Inflow   Inflow   Occurrence      Volume      Volume       Error
  Node                 Type           LPS      LPS  days hr:min    10^6 ltr    10^6 ltr     Percent
  -------------------------------------------------------------------------------------------------
  WS02001211           JUNCTION      7.35   370.61     0  03:10       0.207        4.73       0.302
  WS02001212           JUNCTION      0.00   359.44     0  03:11           0        4.72       0.191
  WS02001213           JUNCTION      0.00   356.60     0  03:13           0        4.71       0.252
  WS02003069           JUNCTION      0.32   722.40     0  03:14     0.00902        10.8       0.162
  WS02003072           JUNCTION      0.00   722.21     0  03:15           0        10.8       0.221
  WS02003073           JUNCTION      1.82   724.27     0  03:15      0.0514        10.8       0.241
  WS02003060           JUNCTION     16.53   722.13     0  03:14       0.466        10.8       0.154
  WS02003066           JUNCTION      0.00   460.87     0  02:47           0        5.68       0.068
  WS02003059           JUNCTION      0.00   355.12     0  03:14           0         4.7       0.593
  WS02003067           JUNCTION      0.00   460.82     0  02:47           0        5.69       0.147
  WS02004401           JUNCTION      0.00   465.66     0  02:42           0        5.89       0.298
  WS02004402           JUNCTION      0.00   465.17     0  02:44           0        5.87       0.288
  WS02004403           JUNCTION      0.00   465.02     0  02:44           0        5.85       0.268
  WS02004404           JUNCTION      0.16   465.10     0  02:44     0.00457        5.84       0.208
  WS02004406           JUNCTION      0.00   465.10     0  02:44           0        5.81       0.510
  WS02004409           JUNCTION      0.00   464.98     0  02:45           0        5.78       0.223
  WS02004410           JUNCTION      0.00   463.52     0  02:45           0        5.76       0.262
  WS02004411           JUNCTION      0.00   462.34     0  02:46           0        5.75       0.277
  WS02004412           JUNCTION      0.00   461.58     0  02:46           0        5.73       0.309
  WS02004413           JUNCTION      0.00   461.04     0  02:46           0        5.71       0.469
  WS02004405           JUNCTION      0.04   465.12     0  02:44     0.00107        5.83       0.311
  WS02006109           JUNCTION      1.23   468.84     0  02:38      0.0347        5.95       0.244
  WS02006110           JUNCTION      0.00   468.84     0  02:38           0        5.94       0.240
  WS02006111           JUNCTION      0.00   482.54     0  02:38           0        5.92       0.043
  WS02006112           JUNCTION      7.75   473.88     0  02:38      0.0217        5.94       0.413
  WS02006113           JUNCTION      0.00   468.87     0  02:38           0        5.93       0.097
  WS02006115           JUNCTION      0.00   469.61     0  02:40           0        5.91       0.250
  WS02006116           JUNCTION      0.00   466.81     0  02:41           0         5.9       0.248
  WS02006230           JUNCTION     10.28   391.41     0  04:23        0.29        5.17       0.212
  WS02006231           JUNCTION      0.00   382.44     0  04:22           0        4.88       0.058
  WS02006232           JUNCTION      0.00   382.61     0  04:22           0        4.89       0.211
  WS02006234           JUNCTION      0.00   384.29     0  04:22           0        4.89       0.040
  WS02006235           JUNCTION      0.00   384.98     0  04:21           0        4.93       0.141
  WS02006238           JUNCTION      0.00   335.30     0  05:21           0         3.4      -0.023
  WS02006240           JUNCTION      0.00   341.59     0  02:32           0        3.37       0.080
  WS02006242           JUNCTION      0.00   349.16     0  02:31           0        3.36       0.101
  WS02006243           JUNCTION      0.00   356.76     0  02:31           0        3.34      -0.547
  WS02006245           JUNCTION      0.00   361.38     0  02:31           0        3.34       0.221
  WS02006247           JUNCTION      0.00   365.12     0  02:31           0        3.34       0.024
  WS02006248           JUNCTION      0.00   369.06     0  02:30           0        3.34      -0.120
  WS02006249           JUNCTION      0.00   427.19     0  02:31           0        3.48       0.181
  WS02006239           JUNCTION      0.00   335.27     0  02:34           0        3.38      -0.051
  WS02006251           JUNCTION      0.08   428.50     0  02:31     0.00217        3.51      -0.009
  WS02006252           JUNCTION      0.00   400.00     0  02:30           0        3.35       0.003
  WS02006253           JUNCTION      1.20    33.32     0  02:18     0.00282       0.151      -0.022
  WS02006256           JUNCTION      0.00   599.99     0  03:20           0        3.08       0.076
  WS02004138           JUNCTION      0.00   380.00     0  04:20           0        4.53       0.007
  WS02004407           JUNCTION      0.00   465.02     0  02:45           0        5.78       0.096
  WS02006228           JUNCTION      0.00   467.61     0  02:38           0        5.93       0.174
  WS02006229           JUNCTION      0.00   467.62     0  02:38           0        5.94       0.163
  WS02006280           JUNCTION      0.00   173.98     0  02:20           0       0.783       0.009
  WS02006284           JUNCTION      0.10   173.98     0  02:20      0.0027       0.784       0.136
  WS02006287           JUNCTION      0.00   173.89     0  02:19           0       0.782       0.092
  WSF200               JUNCTION      0.00   460.86     0  02:47           0        5.68       0.062
  HS02004901           JUNCTION      9.62     9.62     0  02:11      0.0262      0.0263       7.156
  HS02004881           JUNCTION      3.87    32.42     0  02:18      0.0114       0.119       0.182
  HS02004876           JUNCTION      6.06    28.87     0  02:19      0.0218       0.108       0.485
  HS02004870           JUNCTION      6.78    22.95     0  02:19      0.0216      0.0866       0.123
  HS02004862           JUNCTION      5.52    16.66     0  02:19      0.0272      0.0652       0.258
  HS02004856           JUNCTION      5.02    11.19     0  02:18      0.0162      0.0395       3.776
  HS02004852           JUNCTION      0.00     6.52     0  02:19           0      0.0233       0.212
  HS02004848           JUNCTION     10.83    10.83     0  02:21      0.0512      0.0512       0.084
  HS02004842           JUNCTION      0.00     4.68     0  02:31           0      0.0409      46.529
  HS02004837           JUNCTION     17.15    21.19     0  02:17       0.217       0.245       0.333
  HS02004830           JUNCTION      0.15    21.33     0  02:18     0.00423       0.235       0.527
  HS02004824           JUNCTION     12.09    33.27     0  02:22      0.0672       0.301       0.179
  HS02004817           JUNCTION      0.60    33.86     0  02:22      0.0169       0.317       5.544
  HS02004807           JUNCTION     12.78    45.43     0  02:20      0.0397        0.34       1.257
  HS02004802           JUNCTION      0.00    45.57     0  02:21           0       0.336       1.226
  HS02004799           JUNCTION      9.80   109.42     0  02:17      0.0321       0.397       0.570
  HS02004792           JUNCTION     44.06    99.90     0  02:17       0.142       0.366       0.113
  HS02004788           JUNCTION     14.93    58.12     0  02:18      0.0917       0.225       0.175
  HS02004785           JUNCTION      0.15    43.71     0  02:17     0.00423       0.135       0.357
  HS02004777           JUNCTION      0.03    44.22     0  02:15    0.000846       0.136       3.968
  HS02004770           JUNCTION     37.34    45.63     0  02:13       0.112       0.136       2.324
  HS02004480           JUNCTION      0.00   128.95     0  02:18           0       0.462       0.154
  HS02004479           JUNCTION      0.00    19.97     0  02:19           0      0.0769       0.957
  HS02004478           JUNCTION      0.00   173.89     0  02:19           0       0.783       0.081
  YS02001745           JUNCTION     58.39    58.39     0  03:01       0.659       0.659       0.119
  YS02001748           JUNCTION      0.04   151.61     0  04:06     0.00127       0.958       0.259
  YS02001751           JUNCTION      0.01   193.89     0  03:23     0.00031       0.956       1.000
  YS02001754           JUNCTION      0.26   176.01     0  03:24     0.00733       0.889       1.995
  YS02001762           JUNCTION      0.00   123.23     0  03:19           0       0.728       2.777
  YS02001765           JUNCTION      0.00   114.31     0  03:14           0       0.725       3.095
  YS02001767           JUNCTION      0.54   111.28     0  03:12      0.0151       0.739       4.373
  YS02001770           JUNCTION     75.57   101.43     0  03:18       0.778       0.905       3.003
  YS02001774           JUNCTION      0.00    39.91     0  02:24           0       0.252       9.819
  YS02001779           JUNCTION      0.01    35.32     0  04:03    0.000141       0.103      11.364
  YS02001882           JUNCTION      0.00     3.51     0  02:09           0     0.00442      55.395
  YS02001884           JUNCTION      0.00    10.20     0  02:09           0      0.0178      35.350
  YS02001759           JUNCTION     74.07   182.00     0  03:09       0.727        1.42       1.550
  YS02001887           JUNCTION     98.28    98.28     0  02:43       0.876       0.885       0.789
  YS02001890           JUNCTION      0.00    97.72     0  02:45           0       0.863       0.888
  YS02001898           JUNCTION      0.00    97.30     0  02:47           0       0.852       0.238
  YS02001901           JUNCTION      0.00    97.23     0  02:49           0       0.852       0.625
  YS02001904           JUNCTION      0.00    96.83     0  02:50           0       0.852       0.582
  YS02001907           JUNCTION      0.00   175.44     0  02:56           0        1.82       1.209
  YS02001910           JUNCTION      0.00    79.73     0  03:00           0       0.974       1.023
  YS02001915           JUNCTION     52.46    79.35     0  03:01       0.566       0.979       0.439
  YS02001918           JUNCTION      0.00    27.11     0  03:03           0       0.414       0.242
  YS02001619           JUNCTION     50.96    50.96     0  02:59       0.558       0.558       0.761
  YS02001629           JUNCTION      0.00    85.51     0  03:34           0       0.525       2.820
  YS02001641           JUNCTION      0.00   118.28     0  03:08           0        1.09       1.776
  YS02001644           JUNCTION     55.45   172.22     0  03:02       0.632        1.69       1.402
  YS02001652           JUNCTION      0.00   115.99     0  03:30           0       0.843       2.052
  YS02001655           JUNCTION      0.15   178.74     0  03:29     0.00434        0.85       1.339
  YS02001920           JUNCTION      2.87    27.13     0  03:02      0.0809       0.416       0.459
  YS02001923           JUNCTION      0.04    24.26     0  03:02     0.00106       0.335       0.080
  YS02001926           JUNCTION      0.05    24.28     0  03:01     0.00147       0.336       0.578
  YS02001929           JUNCTION     24.24    24.24     0  03:01       0.335       0.335       0.077
  YS02001658           JUNCTION      0.00   121.49     0  04:11           0       0.844       0.307
  YS02001661           JUNCTION      0.00    69.41     0  02:46           0       0.638       0.110
  YS02001664           JUNCTION     69.41    69.41     0  02:46       0.638       0.638       0.025
  YS02001622           JUNCTION      0.00    65.71     0  03:32           0       0.554       2.318
  YS02001633           JUNCTION     56.37   121.06     0  03:08       0.651        1.14       2.533
  YS02001649           JUNCTION      0.00   288.45     0  03:18           0        2.46       1.404
  YS02001757           JUNCTION      0.00   486.06     0  03:17           0        4.45       2.086
  YS02001895           JUNCTION      0.00    97.41     0  02:48           0       0.856       0.411
  YS02001625           JUNCTION      0.00    86.73     0  04:09           0       0.551       5.269
  YS02163301           JUNCTION      0.00    69.43     0  03:11           0        0.51       4.088
  YS02163601           JUNCTION      0.11   128.80     0  03:33      0.0031        1.11       2.606
  YS02164001           JUNCTION      0.00   123.18     0  03:08           0        1.09       1.661
  YS02001647           JUNCTION      0.00   171.42     0  03:14           0        1.66       1.307
  YSB1154              JUNCTION     10.78    10.78     0  02:16      0.0389      0.0403       3.716
  YSB6556              JUNCTION      0.00    10.71     0  02:18           0      0.0413       3.104
  YSB1174              JUNCTION     11.00    11.00     0  02:10      0.0284      0.0294       4.566
  YSB1171              JUNCTION      0.00    19.91     0  02:18           0      0.0763       9.032
  YS02006553           JUNCTION      0.00   175.49     0  02:58           0         1.8       0.785
  YS02006561           JUNCTION      0.00   257.61     0  02:55           0        2.55       0.024
  YS02006556           JUNCTION      0.00   175.65     0  03:02           0        1.81       0.565
  YS02006558           JUNCTION     82.96   257.62     0  02:55       0.798        2.58       0.172
  YS02001783           JUNCTION      0.00   257.60     0  02:55           0        2.55       0.055
  YS02001784           JUNCTION      1.06   324.60     0  02:50      0.0299        2.58       0.091
  YS02001786           JUNCTION      0.06   314.37     0  02:51     0.00159        2.58       0.089
  YS02001788           JUNCTION      0.07   323.85     0  02:52       0.002        2.58       0.051
  YS02001790           JUNCTION      0.15   322.60     0  02:51     0.00437        2.58       0.053
  YS02001791           JUNCTION      0.00   332.19     0  03:13           0        2.58       0.025
  YS02001793           JUNCTION      0.00   359.98     0  03:17           0        2.58       0.007
  WS02004139           JUNCTION      0.32   379.00     0  03:10     0.00905        4.54       0.322
  WSC                  OUTFALL       0.00   724.59     0  03:16           0        10.8       0.000
  3                    OUTFALL       0.00   464.95     0  03:20           0        1.52       0.000
  4                    OUTFALL       0.00    91.93     0  02:40           0       0.133       0.000
  5                    OUTFALL       0.00     0.00     0  00:00           0           0       0.000 ltr
  JK-storage           STORAGE       0.00   447.56     0  02:42           0        2.73     -13.354
  CC-storage           STORAGE       0.00   422.20     0  03:03           0        4.12      -1.967
  XR-storage           STORAGE     295.07   295.07     0  02:53        6.74        7.34      -0.008
  
  
  **********************
  Node Surcharge Summary
  **********************
  
  Surcharging occurs when water rises above the top of the highest conduit.
  ---------------------------------------------------------------------
                                               Max. Height   Min. Depth
                                   Hours       Above Crown    Below Rim
  Node                 Type      Surcharged         Meters       Meters
  ---------------------------------------------------------------------
  WS02006109           JUNCTION        0.60          0.073        1.747
  WS02006232           JUNCTION        0.54          0.040        1.440
  WS02006235           JUNCTION        0.13          0.015        1.275
  WS02006238           JUNCTION        0.26          0.034        1.396
  WS02006242           JUNCTION        0.14          0.024        0.796
  WS02006252           JUNCTION        1.25          0.185        0.915
  WS02006228           JUNCTION        0.57          0.084        2.116
  YS02001759           JUNCTION        0.57          0.040        1.170
  YS02001649           JUNCTION        0.01          0.003        1.047
  YS02001757           JUNCTION        5.13          0.142        1.068
  YS02001790           JUNCTION        0.35          0.769        0.388
  YS02001791           JUNCTION        0.44          0.628        1.292
  YS02001793           JUNCTION        0.55          1.422        1.178
  
  
  *********************
  Node Flooding Summary
  *********************
  
  Flooding refers to all water that overflows a node, whether it ponds or not.
  --------------------------------------------------------------------------
                                                             Total   Maximum
                                 Maximum   Time of Max       Flood    Ponded
                        Hours       Rate    Occurrence      Volume     Depth
  Node                 Flooded       LPS   days hr:min    10^6 ltr    Meters
  --------------------------------------------------------------------------
  JK-storage              0.16    274.93      0  02:51       0.077     0.000
  XR-storage              4.16    260.05      0  04:10       1.885     0.000
  
  
  **********************
  Storage Volume Summary
  **********************
  
  --------------------------------------------------------------------------------------------------
                         Average     Avg  Evap Exfil       Maximum     Max    Time of Max    Maximum
                          Volume    Pcnt  Pcnt  Pcnt        Volume    Pcnt     Occurrence    Outflow
  Storage Unit           1000 m3    Full  Loss  Loss       1000 m3    Full    days hr:min        LPS
  --------------------------------------------------------------------------------------------------
  JK-storage               0.060      20     0     0         0.291     100       0  02:49     599.99
  CC-storage               0.684       4     0     0         1.006       6       0  05:09     400.00
  XR-storage               0.908      98     0     0         0.926     100       0  01:18     380.00
  
  
  ***********************
  Outfall Loading Summary
  ***********************
  
  -----------------------------------------------------------
                         Flow       Avg       Max       Total
                         Freq      Flow      Flow      Volume
  Outfall Node           Pcnt       LPS       LPS    10^6 ltr
  -----------------------------------------------------------
  WSC                   99.99    455.50    724.59      10.784
  3                     53.21    155.88    464.95       1.521
  4                     18.38     31.02     91.93       0.133
  5                      0.00      0.00      0.00       0.000
  -----------------------------------------------------------
  System                42.90    642.41   1164.52      12.438
  
  
  ********************
  Link Flow Summary
  ********************
  
  -----------------------------------------------------------------------------
                                 Maximum  Time of Max   Maximum    Max/    Max/
                                  |Flow|   Occurrence   |Veloc|    Full    Full
  Link                 Type          LPS  days hr:min     m/sec    Flow   Depth
  -----------------------------------------------------------------------------
  WS02003066WSF200     CONDUIT    460.86     0  02:47      2.65    0.08    0.21
  WS02006287WS02006284 CONDUIT    173.88     0  02:20      1.53    0.08    0.20
  WS02006284WS02006280 CONDUIT    173.98     0  02:20      1.77    0.07    0.18
  WS02006280WS02006229 CONDUIT    173.98     0  02:20      2.84    0.04    0.13
  WS02006229WS02006228 CONDUIT    467.61     0  02:38      0.93    1.55    1.00
  WS02006256WS02006235 CONDUIT    166.25     0  00:01      2.58    1.76    1.00
  WS02006253WS02006251 CONDUIT     37.22     0  02:48      0.46    0.11    0.91
  WS02006252WS02006251 CONDUIT    400.35     0  02:30      3.19    1.47    1.00
  WS02006251WS02006249 CONDUIT    427.19     0  02:31      1.23    1.23    0.87
  WS02006249WS02006248 CONDUIT    369.06     0  02:30      1.17    2.02    0.82
  WS02006248WS02006247 CONDUIT    365.12     0  02:31      1.15    0.79    0.85
  WS02006247WS02006245 CONDUIT    361.38     0  02:31      1.13    2.87    0.88
  WS02006245WS02006243 CONDUIT    356.76     0  02:31      1.18    1.06    0.89
  WS02006243WS02006242 CONDUIT    349.16     0  02:31      1.06    0.75    0.96
  WS02006242WS02006240 CONDUIT    341.59     0  02:32      1.00    1.36    0.98
  WS02006240WS02006239 CONDUIT    335.27     0  02:34      1.05    1.06    0.98
  WS02006239WS02006238 CONDUIT    335.30     0  05:21      0.94    1.07    1.00
  WS02006238WS02006235 CONDUIT    334.51     0  05:22      1.25    0.75    1.00
  WS02006235WS02006234 CONDUIT    384.29     0  04:22      1.02    4.05    0.98
  WS02006234WS02006232 CONDUIT    382.61     0  04:22      1.13    0.77    0.99
  WS02006232WS02006231 CONDUIT    382.44     0  04:22      1.05    0.80    0.92
  WS02006231WS02006230 CONDUIT    381.13     0  04:23      1.32    5.78    0.80
  WS02006230WS02006229 CONDUIT    391.16     0  04:24      1.02    8.71    1.00
  WS02006228WS02006109 CONDUIT    467.61     0  02:38      0.93    2.04    1.00
  WS02006116WS02004401 CONDUIT    465.66     0  02:42      0.73    0.64    0.78
  WS02006115WS02006116 CONDUIT    466.81     0  02:41      0.84    0.60    0.70
  WS02006113WS02006111 CONDUIT    482.54     0  02:38      2.34    0.58    0.43
  WS02006112WS02006115 CONDUIT    469.61     0  02:40      0.70    0.28    0.83
  WS02006111WS02006112 CONDUIT    470.15     0  02:39      1.33    0.22    0.66
  WS02006110WS02006113 CONDUIT    468.87     0  02:38      1.14    0.43    0.76
  WS02006109WS02006110 CONDUIT    468.84     0  02:38      0.94    0.90    0.97
  WS02004411WS02004412 CONDUIT    461.58     0  02:46      0.86    0.66    0.65
  WS02004401WS02004402 CONDUIT    465.17     0  02:44      0.77    0.56    0.81
  WS02004413WS02003067 CONDUIT    460.82     0  02:47      1.02    0.20    0.56
  WS02004412WS02004413 CONDUIT    461.04     0  02:46      0.75    0.31    0.73
  WS02004410WS02004411 CONDUIT    462.34     0  02:46      0.88    0.63    0.63
  WS02004409WS02004410 CONDUIT    463.52     0  02:45      0.92    0.60    0.62
  WS02004407WS02004409 CONDUIT    464.98     0  02:45      1.42    0.16    0.44
  WS02004406WS02004407 CONDUIT    465.02     0  02:45      0.95    0.21    0.59
  WS02004405WS02004406 CONDUIT    465.10     0  02:44      0.66    0.92    0.91
  WS02004404WS02004405 CONDUIT    465.08     0  02:44      0.84    4.56    0.91
  WS02004403WS02004404 CONDUIT    464.94     0  02:44      0.74    0.34    0.88
  WS02004402WS02004403 CONDUIT    465.02     0  02:44      0.75    0.67    0.83
  WS02004139WS02001211 CONDUIT    363.26     0  03:10      0.58    0.46    0.56
  WS02004138WS02004139 CONDUIT    378.68     0  03:10      2.39    0.08    0.42
  WS02003067WS02003066 CONDUIT    460.87     0  02:47      1.11    0.15    0.40
  WS02001213WS02003059 CONDUIT    355.12     0  03:14      0.60    0.59    0.71
  WS02001212WS02001213 CONDUIT    356.60     0  03:13      1.25    0.55    0.42
  WS02001211WS02001212 CONDUIT    359.44     0  03:11      0.74    0.27    0.61
  WS02003072WS02003073 CONDUIT    722.45     0  03:15      1.57    1.56    0.43
  WS02003069WS02003072 CONDUIT    722.21     0  03:15      1.49    0.35    0.44
  WS02003060WS02003069 CONDUIT    722.08     0  03:14      1.75    0.28    0.39
  WS02003059WS02003060 CONDUIT    355.08     0  03:14      0.79    0.23    0.60
  HS02004901HS02004770 CONDUIT      8.63     0  02:15      0.04    0.03    0.30
  HS02004876HS02004881 CONDUIT     28.92     0  02:19      0.49    0.31    0.08
  HS02004870HS02004876 CONDUIT     22.93     0  02:19      0.35    0.02    0.09
  HS02004842HS02004848 CONDUIT      4.68     0  02:31      0.03    0.00    0.27
  HS02004837HS02004842 CONDUIT      4.84     0  02:31      0.41    0.00    0.28
  HS02004830HS02004837 CONDUIT     21.18     0  02:18      0.42    0.02    0.07
  HS02004824HS02004830 CONDUIT     21.32     0  02:19      0.46    0.03    0.07
  HS02004817HS02004824 CONDUIT     33.26     0  02:22      0.17    0.01    0.39
  HS02004770HS02004777 CONDUIT     44.19     0  02:15      0.20    0.08    0.31
  HS02004799HS02004480 CONDUIT    109.21     0  02:17      0.54    0.14    0.29
  HS02004792HS02004799 CONDUIT     99.84     0  02:17      0.63    0.06    0.23
  HS02004788HS02004792 CONDUIT     58.07     0  02:18      0.78    0.04    0.11
  HS02004785HS02004788 CONDUIT     43.57     0  02:18      0.47    0.33    0.13
  HS02004777HS02004785 CONDUIT     43.56     0  02:17      0.25    0.05    0.25
  HS02004480HS02004478 CONDUIT    128.93     0  02:18      0.90    0.54    0.21
  HS02004479HS02004480 CONDUIT     20.13     0  02:20      0.16    0.02    0.28
  HS02004862HS02004870 CONDUIT     16.62     0  02:20      0.43    0.02    0.05
  HS02004848HS02004852 CONDUIT      6.52     0  02:19      0.28    0.01    0.03
  HS02004856HS02004862 CONDUIT     11.17     0  02:20      0.32    0.01    0.05
  HS02004852HS02004856 CONDUIT      6.48     0  02:21      0.11    0.01    0.09
  HS02004802HS02004478 CONDUIT     45.82     0  02:22      0.28    0.04    0.24
  HS02004478WS02006287 CONDUIT    173.89     0  02:19      1.22    0.05    0.16
  HS02004817HS02004807 CONDUIT     34.24     0  02:24      0.10    0.02    0.49
  HS02004807HS02004802 CONDUIT     45.57     0  02:21      0.23    0.09    0.28
  YS02001759YS02001757 CONDUIT    183.49     0  03:09      0.23    0.13    1.00
  YS02001762YS02001759 CONDUIT    119.58     0  03:17      0.17    0.14    1.00
  YS02001765YS02001762 CONDUIT    123.23     0  03:19      0.22    0.12    0.97
  YS02001770YS02001767 CONDUIT    110.74     0  03:12      0.34    0.44    0.90
  YS02001774YS02001770 CONDUIT     40.96     0  04:09      0.13    0.03    0.91
  YS02001779YS02001774 CONDUIT     35.32     0  04:03      0.07    0.02    0.84
  YS02001649YS02001757 CONDUIT    310.30     0  03:17      0.40    0.19    1.00
  YS02001767YS02001765 CONDUIT    114.31     0  03:14      0.26    0.14    0.93
  YS02006561YS02001783 CONDUIT    257.60     0  02:55      1.69    0.13    0.51
  YS02001783YS02001784 CONDUIT    323.54     0  02:50      1.15    0.45    0.78
  YS02001784YS02001785 CONDUIT    314.31     0  02:51      1.22    0.73    0.83
  YS02001788YS02001790 CONDUIT    322.45     0  02:51      1.77    0.24    0.94
  YS02001790YS02001791 CONDUIT    332.19     0  03:13      2.08    0.36    1.00
  YS02001791YS02001793 CONDUIT    359.98     0  03:17      4.06    0.15    1.00
  YS02001910YS02001907 CONDUIT     79.86     0  03:01      0.49    0.05    0.69
  YS02001786YS02001788 CONDUIT    323.78     0  02:52      1.68    0.62    0.85
  YS02001915YS02001910 CONDUIT     79.73     0  03:00      0.44    0.04    0.48
  YS02001918YS02001915 CONDUIT     27.10     0  03:03      0.44    0.01    0.23
  YS02001923YS02001920 CONDUIT     24.26     0  03:02      0.40    0.01    0.13
  YS02001926YS02001923 CONDUIT     24.23     0  03:02      0.45    0.03    0.12
  YS02001929YS02001926 CONDUIT     24.23     0  03:01      0.47    0.01    0.12
  YS02001920YS02001918 CONDUIT     27.11     0  03:03      0.42    0.03    0.14
  YS02001629YS02163301 CONDUIT     69.43     0  03:11      0.11    0.09    0.87
  YS02001619YS02001622 CONDUIT     65.71     0  03:32      0.63    0.10    0.48
  YS02001622YS02001625 CONDUIT     72.42     0  03:32      0.23    0.04    0.64
  YS02001625YS02001629 CONDUIT     85.51     0  03:34      0.23    0.04    0.62
  YS02163301YS02001633 CONDUIT     67.47     0  03:08      0.10    0.06    0.92
  YS02163601YS02164001 CONDUIT    123.18     0  03:08      0.16    0.11    0.96
  YS02164001YS02001641 CONDUIT    118.28     0  03:08      0.16    0.16    0.95
  YS02001641YS02001644 CONDUIT    118.97     0  03:10      0.16    0.38    0.97
  YS02001647YS02001649 CONDUIT    182.62     0  03:07      0.26    0.10    0.89
  YS02006553YS02006556 CONDUIT    175.65     0  03:02      0.27    0.15    0.78
  YS02006556YS02006558 CONDUIT    175.82     0  03:02      0.26    0.14    0.80
  YSB6556YSB1171       CONDUIT     10.84     0  02:20      0.05    0.01    0.55
  YS02001907YS02006553 CONDUIT    175.49     0  02:58      0.22    0.21    0.88
  YS02006558YS02006561 CONDUIT    257.61     0  02:55      2.18    0.57    0.43
  YS02001633YS02163601 CONDUIT    128.69     0  03:33      0.17    0.14    0.95
  YS02001644YS02001647 CONDUIT    171.42     0  03:14      0.25    0.10    0.87
  YS02001745YS02001748 CONDUIT     58.39     0  03:01      1.34    0.02    0.18
  YS02001748YS02001751 CONDUIT    193.88     0  03:23      1.04    0.10    0.41
  YS02001751YS02001754 CONDUIT     90.60     0  03:21      0.94    0.04    0.67
  YS02001754YS02001757 CONDUIT    195.63     0  03:19      0.33    0.08    0.92
  YS02001882YS02001884 CONDUIT      3.51     0  02:09      0.06    0.00    0.42
  YS02001884YS02001887 CONDUIT     10.20     0  02:09      0.06    0.01    0.51
  YS02001890YS02001895 CONDUIT     97.41     0  02:48      0.26    0.05    0.48
  YS02001895YS02001898 CONDUIT     97.30     0  02:47      0.47    0.17    0.35
  YS02001898YS02001901 CONDUIT     97.23     0  02:49      0.31    0.06    0.42
  YS02001901YS02001904 CONDUIT     96.83     0  02:50      0.26    0.15    0.48
  YS02001904YS02001907 CONDUIT     96.97     0  02:52      0.18    0.03    0.64
  YS02001887YS02001890 CONDUIT     97.72     0  02:45      0.21    0.17    0.57
  YS02001652YS02001649 CONDUIT    163.89     0  03:28      0.32    0.08    0.91
  YS02001655YS02001652 CONDUIT     95.94     0  03:01      1.02    0.05    0.69
  YS02001658YS02001655 CONDUIT    178.59     0  03:29      1.20    0.08    0.39
  YS02001661YS02001658 CONDUIT     69.40     0  02:46      1.37    0.03    0.18
  YS02001664YS02001661 CONDUIT     69.41     0  02:46      1.01    0.02    0.14
  YSB1154YSB6556       CONDUIT     10.71     0  02:18      0.19    0.02    0.44
  YSB1174YSB1171       CONDUIT     10.01     0  02:12      0.05    0.02    0.56
  YSB1171HS02004479    CONDUIT     19.97     0  02:19      0.54    0.01    0.43
  HS02004881HS02006253 CONDUIT     32.42     0  02:19      1.55    0.01    0.24
  YS02001793JiankangQianchi CONDUIT    447.56     0  02:42     10.92    0.04    1.00
  YS02001757CaochengTiaoxuchi CONDUIT    422.20     0  03:03      0.97    0.19    0.68
  WSF200WS02003060     CONDUIT    461.57     0  02:47      1.71    0.10    0.30
  1                    CONDUIT    724.59     0  03:16      3.05    0.25    0.34
  2                    CONDUIT     91.93     0  02:40      4.73    0.22    0.32
  3                    CONDUIT    464.95     0  03:20      9.66    0.74    0.65
  4                    CONDUIT      0.00     0  00:00      0.00    0.00    0.00
  CC-Pump-1            PUMP       200.00     0  02:30              1.00
  CC-Pump-2            PUMP       200.00     0  02:30              1.00
  JK-Pump-1            PUMP       300.00     0  00:00              1.00
  JK-Pump-2            PUMP       299.99     0  03:20              1.00
  XR-Pump-1            PUMP        95.00     0  01:40              1.00
  XR-Pump-2            PUMP        95.00     0  00:50              1.00
  XR-Pump-3            PUMP        95.00     0  01:10              1.00
  XR-Pump-4            PUMP        95.00     0  00:00              1.00
  
  
  ***************************
  Flow Classification Summary
  ***************************
  
  -------------------------------------------------------------------------------------
                      Adjusted    ---------- Fraction of Time in Flow Class ---------- 
                       /Actual         Up    Down  Sub   Sup   Up    Down  Norm  Inlet 
  Conduit               Length    Dry  Dry   Dry   Crit  Crit  Crit  Crit  Ltd   Ctrl  
  -------------------------------------------------------------------------------------
  WS02003066WSF200        1.00   0.07  0.00  0.00  0.00  0.93  0.00  0.00  0.75  0.00
  WS02006287WS02006284    1.00   0.05  0.02  0.00  0.71  0.23  0.00  0.00  0.78  0.00
  WS02006284WS02006280    1.00   0.05  0.00  0.00  0.00  0.00  0.00  0.95  0.00  0.00
  WS02006280WS02006229    1.00   0.05  0.00  0.00  0.00  0.00  0.00  0.95  0.00  0.00
  WS02006229WS02006228    1.00   0.00  0.00  0.00  0.98  0.00  0.00  0.02  0.00  0.00
  WS02006256WS02006235    1.00   0.00  0.00  0.00  1.00  0.00  0.00  0.00  0.00  0.00
  WS02006253WS02006251    1.00   0.03  0.01  0.00  0.95  0.00  0.00  0.00  0.00  0.00
  WS02006252WS02006251    1.00   0.09  0.00  0.00  0.00  0.00  0.91  0.00  0.00  0.00
  WS02006251WS02006249    1.00   0.00  0.00  0.00  1.00  0.00  0.00  0.00  0.33  0.00
  WS02006249WS02006248    1.00   0.00  0.02  0.00  0.84  0.00  0.14  0.00  0.00  0.00
  WS02006248WS02006247    1.00   0.03  0.00  0.00  0.97  0.00  0.00  0.00  0.23  0.00
  WS02006247WS02006245    1.00   0.02  0.00  0.00  0.97  0.00  0.00  0.00  0.00  0.00
  WS02006245WS02006243    1.00   0.01  0.00  0.00  0.92  0.00  0.00  0.06  0.03  0.00
  WS02006243WS02006242    1.00   0.01  0.00  0.00  0.99  0.00  0.00  0.00  0.30  0.00
  WS02006242WS02006240    1.00   0.00  0.00  0.00  1.00  0.00  0.00  0.00  0.00  0.00
  WS02006240WS02006239    1.00   0.00  0.00  0.00  0.95  0.00  0.00  0.05  0.01  0.00
  WS02006239WS02006238    1.00   0.00  0.00  0.00  1.00  0.00  0.00  0.00  0.02  0.00
  WS02006238WS02006235    1.00   0.00  0.00  0.00  1.00  0.00  0.00  0.00  0.00  0.00
  WS02006235WS02006234    1.00   0.00  0.00  0.00  0.95  0.00  0.05  0.00  0.00  0.00
  WS02006234WS02006232    1.00   0.00  0.00  0.00  1.00  0.00  0.00  0.00  0.15  0.00
  WS02006232WS02006231    1.00   0.00  0.00  0.00  0.99  0.00  0.01  0.00  0.00  0.00
  WS02006231WS02006230    1.00   0.00  0.00  0.00  0.36  0.00  0.64  0.00  0.00  0.00
  WS02006230WS02006229    1.00   0.00  0.00  0.00  0.98  0.00  0.00  0.02  0.01  0.00
  WS02006228WS02006109    1.00   0.00  0.00  0.00  1.00  0.00  0.00  0.00  0.00  0.00
  WS02006116WS02004401    1.00   0.03  0.00  0.00  0.97  0.00  0.00  0.00  0.00  0.00
  WS02006115WS02006116    1.00   0.03  0.00  0.00  0.96  0.00  0.00  0.01  0.00  0.00
  WS02006113WS02006111    1.00   0.02  0.00  0.00  0.00  0.98  0.00  0.00  0.16  0.00
  WS02006112WS02006115    1.00   0.03  0.00  0.00  0.97  0.00  0.00  0.00  0.00  0.00
  WS02006111WS02006112    1.00   0.03  0.00  0.00  0.97  0.00  0.00  0.00  0.98  0.00
  WS02006110WS02006113    1.00   0.01  0.01  0.00  0.98  0.00  0.00  0.00  0.00  0.00
  WS02006109WS02006110    1.00   0.00  0.01  0.00  0.98  0.00  0.01  0.00  0.00  0.00
  WS02004411WS02004412    1.00   0.05  0.00  0.00  0.95  0.00  0.00  0.00  0.00  0.00
  WS02004401WS02004402    1.00   0.03  0.00  0.00  0.97  0.00  0.00  0.00  0.00  0.00
  WS02004413WS02003067    1.00   0.05  0.02  0.00  0.00  0.00  0.94  0.00  0.00  0.00
  WS02004412WS02004413    1.00   0.05  0.00  0.00  0.95  0.00  0.00  0.00  0.03  0.00
  WS02004410WS02004411    1.00   0.05  0.00  0.00  0.95  0.00  0.00  0.00  0.04  0.00
  WS02004409WS02004410    1.00   0.04  0.00  0.00  0.96  0.00  0.00  0.00  0.04  0.00
  WS02004407WS02004409    1.00   0.04  0.00  0.00  0.95  0.00  0.00  0.00  0.89  0.00
  WS02004406WS02004407    1.00   0.00  0.04  0.00  0.96  0.00  0.00  0.00  0.00  0.00
  WS02004405WS02004406    1.00   0.00  0.00  0.00  1.00  0.00  0.00  0.00  0.00  0.00
  WS02004404WS02004405    1.00   0.00  0.00  0.00  1.00  0.00  0.00  0.00  0.00  0.00
  WS02004403WS02004404    1.00   0.00  0.03  0.00  0.97  0.00  0.00  0.00  0.01  0.00
  WS02004402WS02004403    1.00   0.03  0.00  0.00  0.97  0.00  0.00  0.00  0.00  0.00
  WS02004139WS02001211    1.00   0.00  0.00  0.00  0.99  0.00  0.01  0.00  0.00  0.00
  WS02004138WS02004139    1.00   0.00  0.00  0.00  0.99  0.01  0.00  0.00  1.00  0.00
  WS02003067WS02003066    1.00   0.06  0.01  0.00  0.93  0.00  0.00  0.00  0.00  0.00
  WS02001213WS02003059    1.00   0.00  0.01  0.00  0.99  0.00  0.00  0.00  0.00  0.00
  WS02001212WS02001213    1.00   0.01  0.00  0.00  0.66  0.00  0.33  0.00  0.00  0.00
  WS02001211WS02001212    1.00   0.00  0.01  0.00  0.99  0.00  0.00  0.00  0.00  0.00
  WS02003072WS02003073    1.00   0.00  0.00  0.00  0.00  0.00  0.00  1.00  0.00  0.00
  WS02003069WS02003072    1.00   0.00  0.00  0.00  0.99  0.01  0.00  0.00  0.47  0.00
  WS02003060WS02003069    1.00   0.00  0.00  0.00  0.99  0.01  0.00  0.00  0.27  0.00
  WS02003059WS02003060    1.00   0.00  0.00  0.00  0.99  0.01  0.00  0.00  0.02  0.00
  HS02004901HS02004770    1.00   0.05  0.00  0.00  0.95  0.00  0.00  0.00  0.03  0.00
  HS02004876HS02004881    1.00   0.03  0.00  0.00  0.97  0.00  0.00  0.00  0.00  0.00
  HS02004870HS02004876    1.00   0.01  0.00  0.00  0.99  0.00  0.00  0.00  0.95  0.00
  HS02004842HS02004848    1.00   0.00  0.05  0.00  0.95  0.00  0.00  0.00  0.69  0.00
  HS02004837HS02004842    1.00   0.00  0.00  0.00  0.99  0.01  0.00  0.00  0.11  0.00
  HS02004830HS02004837    1.00   0.00  0.00  0.00  1.00  0.00  0.00  0.00  0.99  0.00
  HS02004824HS02004830    1.00   0.00  0.00  0.00  1.00  0.00  0.00  0.00  0.00  0.00
  HS02004817HS02004824    1.00   0.00  0.00  0.00  1.00  0.00  0.00  0.00  1.00  0.00
  HS02004770HS02004777    1.00   0.00  0.05  0.00  0.95  0.00  0.00  0.00  0.07  0.00
  HS02004799HS02004480    1.00   0.00  0.03  0.00  0.93  0.00  0.03  0.00  0.00  0.00
  HS02004792HS02004799    1.00   0.00  0.00  0.00  0.98  0.02  0.00  0.00  0.98  0.00
  HS02004788HS02004792    1.00   0.00  0.00  0.00  0.99  0.01  0.00  0.00  0.98  0.00
  HS02004785HS02004788    1.00   0.00  0.00  0.00  1.00  0.00  0.00  0.00  0.00  0.00
  HS02004777HS02004785    1.00   0.00  0.00  0.00  1.00  0.00  0.00  0.00  0.21  0.00
  HS02004480HS02004478    1.00   0.06  0.00  0.00  0.75  0.00  0.00  0.19  0.00  0.00
  HS02004479HS02004480    1.00   0.03  0.00  0.00  0.97  0.00  0.00  0.00  0.16  0.00
  HS02004862HS02004870    1.00   0.00  0.00  0.00  1.00  0.00  0.00  0.00  0.05  0.00
  HS02004848HS02004852    1.00   0.05  0.00  0.00  0.95  0.00  0.00  0.00  0.70  0.00
  HS02004856HS02004862    1.00   0.00  0.08  0.00  0.92  0.00  0.00  0.00  0.74  0.00
  HS02004852HS02004856    1.00   0.05  0.01  0.00  0.94  0.00  0.00  0.00  0.82  0.00
  HS02004802HS02004478    1.00   0.05  0.01  0.00  0.94  0.00  0.00  0.00  0.00  0.00
  HS02004478WS02006287    1.00   0.06  0.00  0.00  0.90  0.04  0.00  0.00  0.81  0.00
  HS02004817HS02004807    1.00   0.00  0.05  0.00  0.95  0.00  0.00  0.00  0.00  0.00
  HS02004807HS02004802    1.00   0.05  0.00  0.00  0.95  0.00  0.00  0.00  0.01  0.00
  YS02001759YS02001757    1.00   0.00  0.00  0.00  1.00  0.00  0.00  0.00  0.17  0.00
  YS02001762YS02001759    1.00   0.00  0.00  0.00  1.00  0.00  0.00  0.00  0.05  0.00
  YS02001765YS02001762    1.00   0.00  0.00  0.00  1.00  0.00  0.00  0.00  0.23  0.00
  YS02001770YS02001767    1.00   0.00  0.00  0.00  1.00  0.00  0.00  0.00  0.00  0.00
  YS02001774YS02001770    1.00   0.00  0.06  0.00  0.94  0.00  0.00  0.00  0.07  0.00
  YS02001779YS02001774    1.00   0.00  0.00  0.00  1.00  0.00  0.00  0.00  0.27  0.00
  YS02001649YS02001757    1.00   0.00  0.00  0.00  1.00  0.00  0.00  0.00  0.19  0.00
  YS02001767YS02001765    1.00   0.00  0.00  0.00  1.00  0.00  0.00  0.00  0.01  0.00
  YS02006561YS02001783    1.00   0.08  0.00  0.00  0.05  0.87  0.00  0.00  0.73  0.00
  YS02001783YS02001784    1.00   0.00  0.08  0.00  0.92  0.00  0.00  0.00  0.00  0.00
  YS02001784YS02001785    1.00   0.00  0.00  0.00  1.00  0.00  0.00  0.00  0.26  0.00
  YS02001788YS02001790    1.00   0.00  0.00  0.00  0.17  0.83  0.00  0.00  0.83  0.00
  YS02001790YS02001791    1.00   0.00  0.00  0.00  0.11  0.89  0.00  0.00  0.42  0.00
  YS02001791YS02001793    1.00   0.00  0.00  0.00  0.11  0.89  0.00  0.00  0.01  0.00
  YS02001910YS02001907    1.00   0.00  0.00  0.00  0.97  0.00  0.00  0.03  0.13  0.00
  YS02001786YS02001788    1.00   0.00  0.00  0.00  0.15  0.85  0.00  0.00  0.00  0.00
  YS02001915YS02001910    1.00   0.00  0.00  0.00  0.99  0.01  0.00  0.00  0.24  0.00
  YS02001918YS02001915    1.00   0.00  0.01  0.00  0.98  0.02  0.00  0.00  0.81  0.00
  YS02001923YS02001920    1.00   0.00  0.00  0.00  1.00  0.00  0.00  0.00  1.00  0.00
  YS02001926YS02001923    1.00   0.00  0.04  0.00  0.00  0.00  0.96  0.00  0.00  0.00
  YS02001929YS02001926    1.00   0.00  0.05  0.00  0.95  0.00  0.00  0.00  0.86  0.00
  YS02001920YS02001918    1.00   0.00  0.01  0.00  0.99  0.00  0.00  0.00  0.00  0.00
  YS02001629YS02163301    1.00   0.07  0.00  0.00  0.93  0.00  0.00  0.00  0.00  0.00
  YS02001619YS02001622    1.00   0.05  0.00  0.00  0.95  0.00  0.00  0.00  0.00  0.00
  YS02001622YS02001625    1.00   0.05  0.00  0.00  0.95  0.00  0.00  0.00  0.13  0.00
  YS02001625YS02001629    1.00   0.05  0.03  0.00  0.90  0.00  0.01  0.00  0.00  0.00
  YS02163301YS02001633    1.00   0.00  0.07  0.00  0.93  0.00  0.00  0.00  0.00  0.00
  YS02163601YS02164001    1.00   0.00  0.04  0.00  0.96  0.00  0.00  0.00  0.00  0.00
  YS02164001YS02001641    1.00   0.01  0.03  0.00  0.96  0.00  0.00  0.00  0.07  0.00
  YS02001641YS02001644    1.00   0.00  0.01  0.00  0.99  0.00  0.00  0.00  0.00  0.00
  YS02001647YS02001649    1.00   0.00  0.08  0.00  0.92  0.00  0.00  0.00  0.01  0.00
  YS02006553YS02006556    1.00   0.02  0.00  0.00  0.98  0.00  0.00  0.00  0.03  0.00
  YS02006556YS02006558    1.00   0.00  0.00  0.00  1.00  0.00  0.00  0.00  0.00  0.00
  YSB6556YSB1171          1.00   0.03  0.02  0.00  0.95  0.00  0.00  0.00  0.00  0.00
  YS02001907YS02006553    1.00   0.00  0.03  0.00  0.97  0.00  0.00  0.00  0.00  0.00
  YS02006558YS02006561    1.00   0.08  0.00  0.00  0.00  0.92  0.00  0.00  0.72  0.00
  YS02001633YS02163601    1.00   0.00  0.01  0.00  0.99  0.00  0.00  0.00  0.20  0.00
  YS02001644YS02001647    1.00   0.00  0.08  0.00  0.92  0.00  0.00  0.00  0.00  0.00
  YS02001745YS02001748    1.00   0.00  0.00  0.00  0.74  0.11  0.00  0.15  0.65  0.00
  YS02001748YS02001751    1.00   0.00  0.00  0.00  0.98  0.02  0.00  0.00  0.25  0.00
  YS02001751YS02001754    1.00   0.00  0.00  0.00  0.91  0.00  0.00  0.08  0.02  0.00
  YS02001754YS02001757    1.00   0.00  0.00  0.00  0.99  0.01  0.00  0.00  0.27  0.00
  YS02001882YS02001884    1.00   0.07  0.00  0.00  0.93  0.00  0.00  0.00  0.00  0.00
  YS02001884YS02001887    1.00   0.04  0.01  0.00  0.95  0.00  0.00  0.00  0.00  0.00
  YS02001890YS02001895    1.00   0.00  0.07  0.00  0.93  0.00  0.00  0.00  0.00  0.00
  YS02001895YS02001898    1.00   0.07  0.00  0.00  0.92  0.00  0.01  0.00  0.00  0.00
  YS02001898YS02001901    1.00   0.07  0.00  0.00  0.92  0.00  0.00  0.00  0.02  0.00
  YS02001901YS02001904    1.00   0.07  0.00  0.00  0.93  0.00  0.00  0.00  0.00  0.00
  YS02001904YS02001907    1.00   0.00  0.07  0.00  0.93  0.00  0.00  0.00  0.00  0.00
  YS02001887YS02001890    1.00   0.00  0.00  0.00  0.97  0.00  0.03  0.00  0.00  0.00
  YS02001652YS02001649    1.00   0.00  0.00  0.00  1.00  0.00  0.00  0.00  0.26  0.00
  YS02001655YS02001652    1.00   0.00  0.00  0.00  0.91  0.00  0.00  0.08  0.02  0.00
  YS02001658YS02001655    1.00   0.00  0.06  0.00  0.91  0.03  0.00  0.00  0.14  0.00
  YS02001661YS02001658    1.00   0.06  0.00  0.00  0.78  0.16  0.00  0.00  0.72  0.00
  YS02001664YS02001661    1.00   0.05  0.00  0.00  0.85  0.10  0.00  0.00  0.86  0.00
  YSB1154YSB6556          1.00   0.05  0.00  0.00  0.95  0.00  0.00  0.00  0.02  0.00
  YSB1174YSB1171          1.00   0.03  0.01  0.00  0.96  0.00  0.00  0.00  0.00  0.00
  YSB1171HS02004479       1.00   0.03  0.00  0.00  0.96  0.00  0.00  0.00  0.13  0.00
  HS02004881HS02006253    1.00   0.04  0.00  0.00  0.59  0.03  0.00  0.35  0.43  0.00
  YS02001793JiankangQianchi    1.00   0.00  0.00  0.00  0.49  0.51  0.00  0.00  0.34  0.00
  YS02001757CaochengTiaoxuchi    1.00   0.00  0.09  0.00  0.91  0.00  0.00  0.00  0.00  0.00
  WSF200WS02003060        1.00   0.00  0.07  0.00  0.49  0.44  0.00  0.00  0.31  0.00
  1                       1.00   0.00  0.00  0.00  0.00  1.00  0.00  0.00  0.41  0.00
  2                       1.00   0.81  0.00  0.00  0.00  0.19  0.00  0.00  0.06  0.00
  3                       1.00   0.47  0.00  0.00  0.00  0.53  0.00  0.00  0.56  0.00
  4                       1.00   1.00  0.00  0.00  0.00  0.00  0.00  0.00  0.00  0.00
  
  
  *************************
  Conduit Surcharge Summary
  *************************
  
  ----------------------------------------------------------------------------
                                                           Hours        Hours 
                         --------- Hours Full --------   Above Full   Capacity
  Conduit                Both Ends  Upstream  Dnstream   Normal Flow   Limited
  ----------------------------------------------------------------------------
  WS02006229WS02006228        0.57      0.64      0.57      2.56         0.57
  WS02006256WS02006235        5.42      5.42      6.99      2.51         0.01
  WS02006252WS02006251        0.56      0.56      1.25      1.07         0.01
  WS02006251WS02006249        0.01      0.01      0.01      0.55         0.01
  WS02006249WS02006248        0.01      0.01      0.01      2.69         0.01
  WS02006247WS02006245        0.01      0.01      0.01      3.51         0.01
  WS02006245WS02006243        0.01      0.01      0.01      0.12         0.01
  WS02006243WS02006242        0.01      0.01      0.14      0.01         0.01
  WS02006242WS02006240        0.01      0.01      0.41      1.26         0.01
  WS02006240WS02006239        0.01      0.01      0.01      0.34         0.01
  WS02006239WS02006238        0.23      0.23      0.26      0.40         0.01
  WS02006238WS02006235        0.20      0.20      0.46      0.01         0.01
  WS02006235WS02006234        0.01      0.01      0.13      5.34         0.01
  WS02006234WS02006232        0.01      0.01      0.54      0.01         0.01
  WS02006232WS02006231        0.01      0.01      0.54      0.01         0.01
  WS02006231WS02006230        0.01      0.01      0.01      5.50         0.01
  WS02006230WS02006229        1.05      2.10      1.05      5.76         1.05
  WS02006228WS02006109        0.60      0.77      0.60      3.89         0.60
  WS02006111WS02006112        0.01      0.01      2.86      0.01         0.01
  WS02006110WS02006113        0.01      0.01      0.70      0.01         0.01
  WS02006109WS02006110        0.01      0.01      0.77      0.01         0.01
  WS02004404WS02004405        0.01      0.01      0.01      5.57         0.01
  WS02003072WS02003073        0.01      0.01      0.01      3.11         0.01
  YS02001759YS02001757        0.57      0.57      5.13      0.01         0.01
  YS02001762YS02001759        0.01      0.01      0.57      0.01         0.01
  YS02001649YS02001757        0.01      0.01      5.13      0.01         0.01
  YS02001788YS02001790        0.01      0.01      0.35      0.01         0.01
  YS02001790YS02001791        0.35      0.35      0.44      0.01         0.01
  YS02001791YS02001793        0.44      0.44      0.59      0.01         0.01
  YS02001647YS02001649        0.01      0.01      0.01      0.01         0.01
  YS02001754YS02001757        0.01      0.01      5.13      0.01         0.01
  YS02001652YS02001649        0.01      0.01      0.01      0.01         0.01
  YS02001793JiankangQianchi        0.55      0.55      1.79      0.01         0.01
  YS02001757CaochengTiaoxuchi        0.01      0.01      5.13      0.01         0.01
  
  
  ***************
  Pumping Summary
  ***************
  
  ---------------------------------------------------------------------------------------------------------
                                                  Min       Avg       Max     Total     Power    % Time Off
                        Percent   Number of      Flow      Flow      Flow    Volume     Usage    Pump Curve
  Pump                 Utilized   Start-Ups       LPS       LPS       LPS  10^6 ltr     Kw-hr    Low   High
  ---------------------------------------------------------------------------------------------------------
  CC-Pump-1               53.00           5      0.00    123.27    200.00     1.797      6.76    0.0   39.3
  CC-Pump-2               46.61           6      0.00    119.13    200.00     1.557      6.01    0.0   50.0
  JK-Pump-1               65.97           8      0.00    153.76    300.00     2.208     31.96    0.0    0.0
  JK-Pump-2               51.06           8      0.00     97.28    299.99     0.866     14.66    0.0    0.0
  XR-Pump-1               65.93           8      0.00     56.27     95.00     1.083      5.07    0.0    0.0
  XR-Pump-2               61.69           9      0.00     54.17     95.00     1.026      5.45    0.0    0.0
  XR-Pump-3               68.07           6      0.00     62.97     95.00     1.197      6.09    0.0    0.0
  XR-Pump-4               70.22           7      0.00     65.37     95.00     1.226      6.84    0.0    0.0
  

  Analysis begun on:  Thu Jan  6 00:18:21 2022
  Analysis ended on:  Thu Jan  6 00:18:23 2022
  Total elapsed time: 00:00:02