
  EPA STORM WATER MANAGEMENT MODEL - VERSION 5.1 (Build 5.3.0.dev0)
  --------------------------------------------------------------

  WARNING 04: minimum elevation drop used for Conduit WS02004404WS02004405
  WARNING 03: negative offset ignored for Link YS02001904YS02001907
  
  *********************************************************
  NOTE: The summary statistics displayed in this report are
  based on results found at every computational time step,  
  not just on results from each reporting time step.
  *********************************************************
  
  ****************
  Analysis Options
  ****************
  Flow Units ............... LPS
  Process Models:
    Rainfall/Runoff ........ YES
    RDII ................... NO
    Snowmelt ............... NO
    Groundwater ............ NO
    Flow Routing ........... YES
    Ponding Allowed ........ NO
    Water Quality .......... NO
  Infiltration Method ...... HORTON
  Flow Routing Method ...... DYNWAVE
  Surcharge Method ......... EXTRAN
  Starting Date ............ 08/28/2015 08:00:00
  Ending Date .............. 08/28/2015 15:50:00
  Antecedent Dry Days ...... 8.0
  Report Time Step ......... 00:01:00
  Wet Time Step ............ 00:01:00
  Dry Time Step ............ 00:01:00
  Routing Time Step ........ 5.00 sec
  Variable Time Step ....... YES
  Maximum Trials ........... 8
  Number of Threads ........ 4
  Head Tolerance ........... 0.001500 m
  
  
  **************************        Volume         Depth
  Runoff Quantity Continuity     hectare-m            mm
  **************************     ---------       -------
  Total Precipitation ......         2.495         5.462
  Evaporation Loss .........         0.000         0.000
  Infiltration Loss ........         0.624         1.367
  Surface Runoff ...........         1.004         2.198
  Final Storage ............         0.867         1.898
  Continuity Error (%) .....        -0.018
  
  
  **************************        Volume        Volume
  Flow Routing Continuity        hectare-m      10^6 ltr
  **************************     ---------     ---------
  Dry Weather Inflow .......         0.616         6.165
  Wet Weather Inflow .......         1.003        10.034
  Groundwater Inflow .......         0.000         0.000
  RDII Inflow ..............         0.000         0.000
  External Inflow ..........         0.102         1.024
  External Outflow .........         1.181        11.805
  Flooding Loss ............         0.225         2.250
  Evaporation Loss .........         0.000         0.000
  Exfiltration Loss ........         0.000         0.000
  Initial Stored Volume ....         0.076         0.761
  Final Stored Volume ......         0.412         4.123
  Continuity Error (%) .....        -1.087
  
  
  *************************
  Highest Continuity Errors
  *************************
  Node HS02004842 (30.09%)
  Node YS02001884 (24.57%)
  Node YS02001774 (9.76%)
  Node YSB1171 (7.64%)
  Node HS02004901 (6.10%)
  
  
  ***************************
  Time-Step Critical Elements
  ***************************
  Link WS02006252WS02006251 (60.69%)
  Link 3 (29.54%)
  Link WS02006238WS02006235 (3.03%)
  Link WS02006280WS02006229 (2.12%)
  
  
  ********************************
  Highest Flow Instability Indexes
  ********************************
  Link WS02006113WS02006111 (53)
  Link WS02006111WS02006112 (15)
  Link YS02001641YS02001644 (8)
  Link YS02164001YS02001641 (8)
  Link YS02001644YS02001647 (8)
  
  
  *************************
  Routing Time Step Summary
  *************************
  Minimum Time Step           :     0.50 sec
  Average Time Step           :     0.99 sec
  Maximum Time Step           :     5.00 sec
  Percent in Steady State     :    -0.00
  Average Iterations per Step :     2.76
  Percent Not Converging      :     9.00
  
  
  ***************************
  Subcatchment Runoff Summary
  ***************************
  
  ------------------------------------------------------------------------------------------------------------------------------
                            Total      Total      Total      Total     Imperv       Perv      Total       Total     Peak  Runoff
                           Precip      Runon       Evap      Infil     Runoff     Runoff     Runoff      Runoff   Runoff   Coeff
  Subcatchment                 mm         mm         mm         mm         mm         mm         mm    10^6 ltr      LPS
  ------------------------------------------------------------------------------------------------------------------------------
  sub0                       5.46       0.00       0.00       0.38       3.81       0.00       3.81        0.00     1.22   0.698
  sub1                       5.46       0.00       0.00       0.60       3.61       0.00       3.61        0.02     6.40   0.660
  sub2                       5.46       0.00       0.00       2.02       2.54       0.00       2.54        0.02     5.67   0.464
  sub3                       5.46       0.00       0.00       2.02       2.50       0.00       2.50        0.06    11.67   0.458
  sub4                       5.46       0.00       0.00       0.60       3.47       0.00       3.47        0.07    13.12   0.635
  sub5                       5.46       0.00       0.00       0.38       3.77       0.00       3.77        0.04    11.38   0.690
  sub7                       5.46       0.00       0.00       0.49       3.72       0.00       3.72        0.01     4.02   0.680
  sub8                       5.46       0.00       0.00       0.49       3.71       0.00       3.71        0.02     7.09   0.679
  sub9                       5.46       0.00       0.00       0.49       3.70       0.00       3.70        0.02     5.25   0.678
  sub10                      5.46       0.00       0.00       0.44       3.73       0.00       3.73        0.04    11.36   0.684
  sub11                      5.46       0.00       0.00       0.44       3.75       0.00       3.75        0.04    13.33   0.687
  sub12                      5.46       0.00       0.00       0.71       3.56       0.00       3.56        0.03    11.29   0.652
  sub14                      5.46       0.00       0.00       0.49       3.70       0.00       3.70        0.04    10.26   0.678
  sub15                      5.46       0.00       0.00       1.64       2.85       0.00       2.85        0.05    13.93   0.521
  sub16                      5.46       0.00       0.00       1.80       2.74       0.00       2.74        0.03     9.93   0.502
  sub17                      5.46       0.00       0.00       1.75       2.78       0.00       2.78        0.02     8.02   0.509
  sub22                      5.46       0.00       0.00       2.35       2.32       0.00       2.32        0.15    45.61   0.426
  sub23                      5.46       0.00       0.00       2.02       2.57       0.00       2.57        0.12    38.85   0.471
  sub60                      5.46       0.00       0.00       0.66       2.43       0.00       2.43        0.74    67.28   0.446
  sub61                      5.46       0.00       0.00       0.93       2.62       0.00       2.62        0.81    84.42   0.480
  sub62                      5.46       0.00       0.00       0.44       2.81       0.00       2.81        0.86    86.35   0.514
  sub63                      5.46       0.00       0.00       1.58       2.34       0.00       2.34        0.71    78.70   0.429
  sub64                      5.46       0.00       0.00       0.82       2.33       0.00       2.33        0.71    63.86   0.426
  sub65                      5.46       0.00       0.00       0.71       2.35       0.00       2.35        0.72    64.75   0.431
  sub66                      5.46       0.00       0.00       1.58       2.03       0.00       2.03        0.62    58.67   0.373
  sub67                      5.46       0.00       0.00       0.44       3.11       0.00       3.11        0.96   110.55   0.569
  sub68                      5.46       0.00       0.00       0.76       2.80       0.00       2.80        0.86    93.27   0.512
  sub69                      5.46       0.00       0.00       0.82       3.04       0.00       3.04        0.71    92.37   0.557
  sub70                      5.46       3.10       0.00       2.91       3.68       0.00       3.68        0.84    73.56   0.429
  sub71                      5.46       0.00       0.00       0.44       2.68       0.00       2.68        0.63    60.33   0.490
  sub72                      5.46       0.00       0.00       0.38       1.86       0.00       1.86        0.38    28.02   0.340
  sub73                      5.46       3.58       0.00       3.07       3.70       0.00       3.70        0.87    62.93   0.409
  sub74                      5.46       0.00       0.00       4.10       0.92       0.00       0.92        0.37    51.48   0.168
  
  
  ******************
  Node Depth Summary
  ******************
  
  ---------------------------------------------------------------------------------
                                 Average  Maximum  Maximum  Time of Max    Reported
                                   Depth    Depth      HGL   Occurrence   Max Depth
  Node                 Type       Meters   Meters   Meters  days hr:min      Meters
  ---------------------------------------------------------------------------------
  WS02001211           JUNCTION     0.56     0.75     5.59     0  01:40        0.75
  WS02001212           JUNCTION     0.30     0.45     5.51     0  01:41        0.45
  WS02001213           JUNCTION     0.53     0.65     5.42     0  01:41        0.65
  WS02003069           JUNCTION     0.36     0.43     5.02     0  02:58        0.43
  WS02003072           JUNCTION     0.43     0.50     4.87     0  02:59        0.50
  WS02003073           JUNCTION     0.25     0.30     4.37     0  02:59        0.30
  WS02003060           JUNCTION     0.32     0.39     5.32     0  02:57        0.39
  WS02003066           JUNCTION     0.21     0.28     5.83     0  02:51        0.28
  WS02003059           JUNCTION     0.59     0.70     5.39     0  01:42        0.70
  WS02003067           JUNCTION     0.52     0.67     5.99     0  02:51        0.67
  WS02004401           JUNCTION     0.60     0.79     6.79     0  02:47        0.79
  WS02004402           JUNCTION     0.64     0.81     6.77     0  02:47        0.81
  WS02004403           JUNCTION     0.66     0.83     6.76     0  02:47        0.83
  WS02004404           JUNCTION     0.73     0.91     6.76     0  02:47        0.91
  WS02004406           JUNCTION     0.75     0.91     6.74     0  02:47        0.91
  WS02004409           JUNCTION     0.42     0.61     6.38     0  02:50        0.61
  WS02004410           JUNCTION     0.44     0.62     6.34     0  02:50        0.62
  WS02004411           JUNCTION     0.46     0.64     6.32     0  02:50        0.64
  WS02004412           JUNCTION     0.48     0.65     6.29     0  02:51        0.65
  WS02004413           JUNCTION     0.64     0.81     6.28     0  02:51        0.81
  WS02004405           JUNCTION     0.73     0.90     6.75     0  02:47        0.90
  WS02006109           JUNCTION     0.67     0.88     7.49     0  02:43        0.88
  WS02006110           JUNCTION     0.67     0.86     7.44     0  02:43        0.86
  WS02006111           JUNCTION     0.19     0.26     6.97     0  02:43        0.26
  WS02006112           JUNCTION     0.76     0.97     6.85     0  02:46        0.97
  WS02006113           JUNCTION     0.29     0.41     7.31     0  02:43        0.41
  WS02006115           JUNCTION     0.49     0.68     6.82     0  02:47        0.68
  WS02006116           JUNCTION     0.57     0.76     6.80     0  02:47        0.76
  WS02006230           JUNCTION     0.61     0.88     7.63     0  02:44        0.88
  WS02006231           JUNCTION     0.40     0.59     7.71     0  03:17        0.59
  WS02006232           JUNCTION     0.53     0.73     7.77     0  03:16        0.73
  WS02006234           JUNCTION     0.44     0.67     7.83     0  03:16        0.67
  WS02006235           JUNCTION     0.47     0.71     7.87     0  03:16        0.71
  WS02006238           JUNCTION     0.49     0.73     7.88     0  03:16        0.73
  WS02006240           JUNCTION     0.38     0.65     7.95     0  03:16        0.65
  WS02006242           JUNCTION     0.44     0.72     7.99     0  03:16        0.72
  WS02006243           JUNCTION     0.31     0.60     8.02     0  03:15        0.60
  WS02006245           JUNCTION     0.30     0.57     8.06     0  03:15        0.57
  WS02006247           JUNCTION     0.32     0.59     8.09     0  07:30        0.59
  WS02006248           JUNCTION     0.28     0.54     8.12     0  07:30        0.54
  WS02006249           JUNCTION     0.31     0.57     8.17     0  07:30        0.57
  WS02006239           JUNCTION     0.44     0.71     7.92     0  03:16        0.71
  WS02006251           JUNCTION     0.30     0.59     8.26     0  03:10        0.59
  WS02006252           JUNCTION     0.27     0.59     8.83     0  06:40        0.58
  WS02006253           JUNCTION     0.33     0.62     8.27     0  03:10        0.62
  WS02006256           JUNCTION     0.90     1.20     8.13     0  03:00        1.20
  WS02004138           JUNCTION     0.12     0.19     7.44     0  01:40        0.19
  WS02004407           JUNCTION     0.19     0.27     6.58     0  02:48        0.27
  WS02006228           JUNCTION     0.66     0.89     7.54     0  02:43        0.89
  WS02006229           JUNCTION     0.63     0.88     7.57     0  02:43        0.88
  WS02006280           JUNCTION     0.05     0.14     8.41     0  02:20        0.14
  WS02006284           JUNCTION     0.34     0.47     8.87     0  02:20        0.47
  WS02006287           JUNCTION     0.08     0.20     9.15     0  02:20        0.20
  WSF200               JUNCTION     0.18     0.27     5.50     0  02:54        0.27
  HS02004901           JUNCTION     0.11     0.22    10.04     0  02:17        0.22
  HS02004881           JUNCTION     0.01     0.02     9.05     0  02:19        0.02
  HS02004876           JUNCTION     0.03     0.10     9.13     0  02:19        0.10
  HS02004870           JUNCTION     0.01     0.04     9.32     0  02:20        0.04
  HS02004862           JUNCTION     0.01     0.04     9.43     0  02:21        0.04
  HS02004856           JUNCTION     0.07     0.10     9.53     0  02:20        0.10
  HS02004852           JUNCTION     0.01     0.02     9.54     0  02:21        0.02
  HS02004848           JUNCTION     0.01     0.02     9.63     0  02:19        0.02
  HS02004842           JUNCTION     0.32     0.36     9.63     0  02:19        0.36
  HS02004837           JUNCTION     0.03     0.04     9.62     0  02:19        0.04
  HS02004830           JUNCTION     0.04     0.06     9.53     0  02:20        0.06
  HS02004824           JUNCTION     0.02     0.04     9.44     0  02:23        0.04
  HS02004817           JUNCTION     0.42     0.51     9.36     0  02:20        0.51
  HS02004807           JUNCTION     0.11     0.19     9.36     0  02:20        0.19
  HS02004802           JUNCTION     0.15     0.23     9.35     0  02:20        0.23
  HS02004799           JUNCTION     0.10     0.24     9.45     0  02:18        0.24
  HS02004792           JUNCTION     0.02     0.09     9.61     0  02:17        0.09
  HS02004788           JUNCTION     0.02     0.07     9.96     0  02:18        0.07
  HS02004785           JUNCTION     0.03     0.12    10.03     0  02:18        0.12
  HS02004777           JUNCTION     0.13     0.24    10.04     0  02:18        0.24
  HS02004770           JUNCTION     0.10     0.21    10.04     0  02:18        0.21
  HS02004480           JUNCTION     0.06     0.18     9.42     0  02:18        0.18
  HS02004479           JUNCTION     0.10     0.22     9.43     0  02:18        0.22
  HS02004478           JUNCTION     0.05     0.12     9.34     0  02:19        0.12
  YS02001745           JUNCTION     0.12     0.27     7.79     0  06:04        0.26
  YS02001748           JUNCTION     0.44     0.70     7.78     0  06:04        0.69
  YS02001751           JUNCTION     0.62     0.92     7.80     0  06:03        0.90
  YS02001754           JUNCTION     0.87     1.17     7.78     0  06:03        1.15
  YS02001762           JUNCTION     1.06     1.48     7.88     0  06:48        1.39
  YS02001765           JUNCTION     1.01     1.48     7.93     0  04:58        1.36
  YS02001767           JUNCTION     0.98     1.50     7.99     0  04:58        1.34
  YS02001770           JUNCTION     0.97     1.59     8.08     0  05:05        1.36
  YS02001774           JUNCTION     1.04     1.69     8.11     0  04:58        1.44
  YS02001779           JUNCTION     0.79     1.49     8.18     0  05:05        1.19
  YS02001882           JUNCTION     0.27     0.43     7.14     0  02:58        0.43
  YS02001884           JUNCTION     0.36     0.53     7.14     0  02:58        0.52
  YS02001759           JUNCTION     1.09     1.46     7.83     0  06:48        1.41
  YS02001887           JUNCTION     0.44     0.60     7.14     0  02:58        0.60
  YS02001890           JUNCTION     0.47     0.63     7.14     0  02:58        0.63
  YS02001898           JUNCTION     0.24     0.39     7.12     0  02:59        0.39
  YS02001901           JUNCTION     0.36     0.52     7.12     0  02:59        0.52
  YS02001904           JUNCTION     0.33     0.49     7.12     0  03:00        0.49
  YS02001907           JUNCTION     0.66     0.83     7.12     0  02:59        0.83
  YS02001910           JUNCTION     0.45     0.62     7.12     0  02:59        0.62
  YS02001915           JUNCTION     0.25     0.40     7.12     0  02:59        0.40
  YS02001918           JUNCTION     0.07     0.09     7.16     0  03:03        0.09
  YS02001619           JUNCTION     0.58     0.83     7.76     0  06:33        0.83
  YS02001629           JUNCTION     0.92     1.22     7.77     0  06:04        1.22
  YS02001641           JUNCTION     1.03     1.36     7.79     0  06:24        1.33
  YS02001644           JUNCTION     1.03     1.36     7.79     0  06:24        1.33
  YS02001652           JUNCTION     0.88     1.18     7.77     0  06:34        1.16
  YS02001655           JUNCTION     0.65     0.93     7.78     0  06:34        0.92
  YS02001920           JUNCTION     0.17     0.20     7.20     0  03:03        0.20
  YS02001923           JUNCTION     0.06     0.08     7.34     0  03:02        0.08
  YS02001926           JUNCTION     0.13     0.17     7.61     0  03:01        0.17
  YS02001929           JUNCTION     0.06     0.08     7.77     0  03:01        0.08
  YS02001658           JUNCTION     0.39     0.62     7.76     0  06:28        0.62
  YS02001661           JUNCTION     0.21     0.37     7.77     0  06:34        0.37
  YS02001664           JUNCTION     0.06     0.11     8.03     0  02:49        0.11
  YS02001622           JUNCTION     0.60     0.85     7.75     0  06:05        0.84
  YS02001633           JUNCTION     1.01     1.32     7.78     0  06:03        1.31
  YS02001649           JUNCTION     1.07     1.39     7.78     0  06:32        1.37
  YS02001757           JUNCTION     1.19     1.52     7.78     0  06:27        1.49
  YS02001895           JUNCTION     0.23     0.39     7.13     0  02:58        0.39
  YS02001625           JUNCTION     0.88     1.15     7.75     0  06:04        1.15
  YS02163301           JUNCTION     0.95     1.26     7.77     0  06:04        1.25
  YS02163601           JUNCTION     1.07     1.39     7.79     0  06:24        1.37
  YS02164001           JUNCTION     1.01     1.34     7.80     0  06:24        1.31
  YS02001647           JUNCTION     0.86     1.18     7.79     0  06:24        1.15
  YSB1154              JUNCTION     0.23     0.37     9.43     0  02:19        0.37
  YSB6556              JUNCTION     0.13     0.26     9.43     0  02:18        0.26
  YSB1174              JUNCTION     0.19     0.32     9.43     0  02:19        0.32
  YSB1171              JUNCTION     0.38     0.52     9.43     0  02:18        0.52
  YS02006553           JUNCTION     0.67     0.84     7.12     0  02:59        0.84
  YS02006561           JUNCTION     0.13     0.21     6.87     0  03:00        0.21
  YS02006556           JUNCTION     0.64     0.81     7.12     0  03:00        0.81
  YS02006558           JUNCTION     0.68     0.85     7.12     0  03:00        0.85
  YS02001783           JUNCTION     0.23     0.56     6.70     0  04:04        0.56
  YS02001784           JUNCTION     0.27     0.62     6.69     0  04:05        0.61
  YS02001786           JUNCTION     0.24     0.64     6.67     0  04:05        0.62
  YS02001788           JUNCTION     0.18     0.68     6.65     0  04:05        0.67
  YS02001790           JUNCTION     0.25     1.82     7.47     0  04:01        0.99
  YS02001791           JUNCTION     0.21     2.16     7.63     0  03:58        1.15
  YS02001793           JUNCTION     0.28     1.91     6.74     0  04:01        1.77
  WS02004139           JUNCTION     0.50     0.70     5.61     0  01:40        0.69
  WSC                  OUTFALL      0.25     0.30     0.97     0  03:00        0.30
  3                    OUTFALL      0.05     0.19     6.19     0  03:00        0.19
  4                    OUTFALL      0.00     0.07     7.07     0  07:30        0.07
  5                    OUTFALL      0.00     0.00     5.00     0  00:00        0.00
  JK-storage           STORAGE      1.84     5.80     6.60     0  04:03        5.80
  CC-storage           STORAGE      0.46     0.73     7.73     0  06:33        0.73
  XR-storage           STORAGE      7.51     7.72     5.72     0  02:33        7.72
  
  
  *******************
  Node Inflow Summary
  *******************
  
  -------------------------------------------------------------------------------------------------
                                  Maximum  Maximum                  Lateral       Total        Flow
                                  Lateral    Total  Time of Max      Inflow      Inflow     Balance
                                   Inflow   Inflow   Occurrence      Volume      Volume       Error
  Node                 Type           LPS      LPS  days hr:min    10^6 ltr    10^6 ltr     Percent
  -------------------------------------------------------------------------------------------------
  WS02001211           JUNCTION      7.35   381.23     0  01:40       0.207        4.58       0.546
  WS02001212           JUNCTION      0.00   376.94     0  01:40           0        4.55       0.359
  WS02001213           JUNCTION      0.00   375.84     0  01:41           0        4.54       0.315
  WS02003069           JUNCTION      0.32   565.09     0  02:58     0.00902        10.3       0.224
  WS02003072           JUNCTION      0.00   565.09     0  02:58           0        10.3       0.293
  WS02003073           JUNCTION      1.82   566.92     0  02:59      0.0514        10.3       0.329
  WS02003060           JUNCTION     16.53   564.77     0  02:57       0.466        10.4       0.215
  WS02003066           JUNCTION      0.00   452.69     0  02:51           0        5.41       0.079
  WS02003059           JUNCTION      0.00   374.26     0  01:41           0        4.53       0.738
  WS02003067           JUNCTION      0.00   452.68     0  02:51           0        5.42       0.167
  WS02004401           JUNCTION      0.00   454.32     0  02:46           0        5.63       0.333
  WS02004402           JUNCTION      0.00   454.07     0  02:46           0        5.61       0.320
  WS02004403           JUNCTION      0.00   453.94     0  02:47           0        5.59       0.296
  WS02004404           JUNCTION      0.16   454.04     0  02:47     0.00457        5.58       0.228
  WS02004406           JUNCTION      0.00   454.03     0  02:47           0        5.55       0.559
  WS02004409           JUNCTION      0.00   454.00     0  02:48           0        5.51       0.266
  WS02004410           JUNCTION      0.00   453.47     0  02:49           0         5.5       0.308
  WS02004411           JUNCTION      0.00   453.09     0  02:49           0        5.48       0.322
  WS02004412           JUNCTION      0.00   452.85     0  02:50           0        5.46       0.355
  WS02004413           JUNCTION      0.00   452.73     0  02:50           0        5.45       0.532
  WS02004405           JUNCTION      0.04   454.05     0  02:47     0.00107        5.57       0.341
  WS02006109           JUNCTION      1.23   452.60     0  02:43      0.0347         5.7       0.260
  WS02006110           JUNCTION      0.00   452.61     0  02:43           0        5.69       0.267
  WS02006111           JUNCTION      0.00   465.16     0  02:43           0        5.67       0.051
  WS02006112           JUNCTION      8.02   457.69     0  02:43      0.0238        5.69       0.454
  WS02006113           JUNCTION      0.00   452.69     0  02:43           0        5.67       0.112
  WS02006115           JUNCTION      0.00   455.62     0  02:44           0        5.66       0.287
  WS02006116           JUNCTION      0.00   454.77     0  02:45           0        5.65       0.282
  WS02006230           JUNCTION     10.28   378.18     0  07:33        0.29        4.86       0.228
  WS02006231           JUNCTION      0.00   370.47     0  07:33           0        4.58       0.090
  WS02006232           JUNCTION      0.00   370.75     0  07:33           0        4.59       0.239
  WS02006234           JUNCTION      0.00   373.79     0  07:32           0        4.59       0.053
  WS02006235           JUNCTION      0.00   376.34     0  07:32           0        4.63       0.162
  WS02006238           JUNCTION      0.00   325.73     0  07:30           0        3.04       0.052
  WS02006240           JUNCTION      0.00   332.60     0  07:30           0        3.01       0.111
  WS02006242           JUNCTION      0.00   338.58     0  03:11           0           3       0.140
  WS02006243           JUNCTION      0.00   343.37     0  03:11           0        2.97      -0.621
  WS02006245           JUNCTION      0.00   345.04     0  06:11           0        2.98       0.220
  WS02006247           JUNCTION      0.00   349.26     0  06:10           0        2.98       0.003
  WS02006248           JUNCTION      0.00   354.22     0  03:10           0        2.97      -0.143
  WS02006249           JUNCTION      0.00   400.84     0  03:10           0        3.02       0.227
  WS02006239           JUNCTION      0.00   329.21     0  07:30           0        3.02      -0.067
  WS02006251           JUNCTION      0.08   403.36     0  03:10     0.00217        3.05      -0.015
  WS02006252           JUNCTION      0.00   399.90     0  06:40           0        2.88       0.003
  WS02006253           JUNCTION      1.22    35.36     0  02:19     0.00309       0.164      -0.014
  WS02006256           JUNCTION      0.00   599.92     0  03:00           0        3.08       0.084
  WS02004138           JUNCTION      0.00   379.82     0  01:40           0        4.39       0.045
  WS02004407           JUNCTION      0.00   454.01     0  02:48           0        5.52       0.112
  WS02006228           JUNCTION      0.00   451.37     0  02:43           0        5.68       0.193
  WS02006229           JUNCTION      0.00   451.38     0  02:42           0        5.69       0.182
  WS02006280           JUNCTION      0.00   183.56     0  02:20           0       0.839       0.008
  WS02006284           JUNCTION      0.10   183.55     0  02:20      0.0027        0.84       0.128
  WS02006287           JUNCTION      0.00   183.48     0  02:19           0       0.838       0.086
  WSF200               JUNCTION      0.00   452.69     0  02:51           0         5.4       0.076
  HS02004901           JUNCTION      9.93     9.93     0  02:11      0.0287      0.0288       6.492
  HS02004881           JUNCTION      4.02    34.42     0  02:19      0.0125       0.131       0.171
  HS02004876           JUNCTION      6.40    30.69     0  02:19       0.024       0.119       0.444
  HS02004870           JUNCTION      7.09    24.41     0  02:19      0.0237      0.0952       0.112
  HS02004862           JUNCTION      5.87    17.79     0  02:20      0.0293      0.0717       0.236
  HS02004856           JUNCTION      5.25    11.97     0  02:19      0.0178      0.0439       3.388
  HS02004852           JUNCTION      0.00     7.04     0  02:19           0      0.0261       0.193
  HS02004848           JUNCTION     11.67    11.67     0  02:23      0.0563      0.0563       0.078
  HS02004842           JUNCTION      0.00     5.01     0  02:33           0      0.0432      43.032
  HS02004837           JUNCTION     17.71    22.03     0  02:18        0.22        0.25       0.326
  HS02004830           JUNCTION      0.15    22.16     0  02:19     0.00423       0.241       0.514
  HS02004824           JUNCTION     13.17    35.16     0  02:23      0.0738       0.313       0.172
  HS02004817           JUNCTION      0.60    35.76     0  02:23      0.0169        0.33       5.323
  HS02004807           JUNCTION     13.33    47.90     0  02:21      0.0435       0.357       1.199
  HS02004802           JUNCTION      0.00    48.08     0  02:22           0       0.352       1.167
  HS02004799           JUNCTION     10.26   115.46     0  02:17      0.0352       0.431       0.529
  HS02004792           JUNCTION     45.89   105.41     0  02:17       0.155       0.396       0.104
  HS02004788           JUNCTION     15.60    61.35     0  02:18       0.096       0.243       0.162
  HS02004785           JUNCTION      0.15    46.15     0  02:17     0.00423       0.149       0.326
  HS02004777           JUNCTION      0.03    46.52     0  02:16    0.000846       0.149       3.603
  HS02004770           JUNCTION     38.85    47.67     0  02:13       0.123        0.15       2.114
  HS02004480           JUNCTION      0.00   136.20     0  02:18           0       0.502       0.143
  HS02004479           JUNCTION      0.00    21.12     0  02:20           0      0.0833       0.883
  HS02004478           JUNCTION      0.00   183.48     0  02:19           0       0.839       0.075
  YS02001745           JUNCTION     67.29    85.48     0  06:18       0.738       0.774       0.160
  YS02001748           JUNCTION      0.04   181.55     0  03:33     0.00127       0.923       1.102
  YS02001751           JUNCTION      0.01   222.87     0  03:32     0.00031       0.886       2.005
  YS02001754           JUNCTION      0.26   162.48     0  03:32     0.00733       0.768       2.834
  YS02001762           JUNCTION      0.00   119.85     0  03:38           0       0.815       2.573
  YS02001765           JUNCTION      0.00    97.82     0  03:36           0       0.816       2.922
  YS02001767           JUNCTION      0.54   155.91     0  03:43      0.0151       0.837       4.359
  YS02001770           JUNCTION     86.51   156.29     0  03:42       0.867       0.988       3.052
  YS02001774           JUNCTION      0.00    99.02     0  03:39           0       0.254      10.814
  YS02001779           JUNCTION      0.01    94.22     0  03:41    0.000141       0.116      11.361
  YS02001882           JUNCTION      0.00     3.52     0  02:08           0     0.00483      50.937
  YS02001884           JUNCTION      0.00    10.10     0  02:08           0      0.0194      32.581
  YS02001759           JUNCTION     84.46   185.23     0  03:22        0.81        1.58       1.453
  YS02001887           JUNCTION    111.00   111.00     0  02:47       0.971       0.981       0.724
  YS02001890           JUNCTION      0.00   110.36     0  02:49           0       0.958       0.814
  YS02001898           JUNCTION      0.00   109.89     0  02:52           0       0.947       0.224
  YS02001901           JUNCTION      0.00   109.76     0  02:52           0       0.946       0.575
  YS02001904           JUNCTION      0.00   109.38     0  02:53           0       0.945       0.535
  YS02001907           JUNCTION      0.00   199.93     0  03:02           0        2.02       1.095
  YS02001910           JUNCTION      0.00    91.20     0  03:01           0        1.08       0.932
  YS02001915           JUNCTION     60.35    90.96     0  03:01       0.633        1.09       0.408
  YS02001918           JUNCTION      0.00    30.87     0  03:03           0       0.457       0.233
  YS02001619           JUNCTION     58.67    58.67     0  03:01       0.624       0.625       1.408
  YS02001629           JUNCTION      0.00   131.71     0  03:35           0       0.595       3.851
  YS02001641           JUNCTION      0.00   161.88     0  03:42           0        1.19       1.700
  YS02001644           JUNCTION     63.90   210.51     0  03:42       0.708        1.87       1.336
  YS02001652           JUNCTION      0.00   126.43     0  03:28           0       0.735       2.950
  YS02001655           JUNCTION      0.15   216.19     0  03:29     0.00434       0.814       2.386
  YS02001920           JUNCTION      2.87    30.89     0  03:02      0.0809       0.459       0.431
  YS02001923           JUNCTION      0.04    28.02     0  03:02     0.00106       0.379       0.075
  YS02001926           JUNCTION      0.05    28.05     0  03:01     0.00147        0.38       0.541
  YS02001929           JUNCTION     28.02    28.02     0  03:01       0.378       0.378       0.073
  YS02001658           JUNCTION      0.00   164.26     0  03:30           0       0.889       1.142
  YS02001661           JUNCTION      0.00    84.22     0  05:54           0       0.786       0.294
  YS02001664           JUNCTION     78.70    78.70     0  02:49       0.709       0.709       0.018
  YS02001622           JUNCTION      0.00    98.69     0  03:37           0       0.641       3.826
  YS02001633           JUNCTION     64.95   138.14     0  03:03       0.729        1.25       2.566
  YS02001649           JUNCTION      0.00   307.71     0  03:16           0        2.51       1.482
  YS02001757           JUNCTION      0.00   488.26     0  03:20           0        4.69       1.997
  YS02001895           JUNCTION      0.00   110.03     0  02:51           0        0.95       0.381
  YS02001625           JUNCTION      0.00   159.74     0  03:36           0       0.653       6.100
  YS02163301           JUNCTION      0.00   105.80     0  04:02           0       0.543       4.500
  YS02163601           JUNCTION      0.11   155.32     0  03:41      0.0031        1.21       2.416
  YS02164001           JUNCTION      0.00   159.22     0  03:21           0        1.19       1.572
  YS02001647           JUNCTION      0.00   200.25     0  03:15           0        1.83       1.377
  YSB1154              JUNCTION     11.38    11.38     0  02:16      0.0427       0.044       3.391
  YSB6556              JUNCTION      0.00    11.39     0  02:18           0      0.0451       2.843
  YSB1174              JUNCTION     11.29    11.29     0  02:10      0.0311      0.0322       4.157
  YSB1171              JUNCTION      0.00    21.15     0  02:17           0      0.0828       8.267
  YS02006553           JUNCTION      0.00   200.29     0  03:02           0        2.01       0.711
  YS02006561           JUNCTION      0.00   293.07     0  03:00           0        2.84       0.022
  YS02006556           JUNCTION      0.00   200.57     0  03:03           0        2.01       0.513
  YS02006558           JUNCTION     94.15   293.08     0  02:59       0.885        2.87       0.156
  YS02001783           JUNCTION      0.00   293.07     0  03:00           0        2.84       0.052
  YS02001784           JUNCTION      1.06   294.13     0  02:59      0.0299        2.87       0.086
  YS02001786           JUNCTION      0.06   294.18     0  02:59     0.00159        2.87       0.083
  YS02001788           JUNCTION      0.07   294.24     0  03:00       0.002        2.87       0.047
  YS02001790           JUNCTION      0.15   294.40     0  03:00     0.00437        2.87       0.052
  YS02001791           JUNCTION      0.00   294.39     0  03:00           0        2.87       0.020
  YS02001793           JUNCTION      0.00   316.63     0  03:54           0        2.88      -0.015
  WS02004139           JUNCTION      0.32   379.55     0  01:40     0.00905         4.4       0.547
  WSC                  OUTFALL       0.00   566.88     0  03:00           0        10.3       0.000
  3                    OUTFALL       0.00   473.41     0  03:00           0        1.46       0.000
  4                    OUTFALL       0.00    49.80     0  07:30           0      0.0381       0.000
  5                    OUTFALL       0.00     0.00     0  00:00           0           0       0.000 ltr
  JK-storage           STORAGE       0.00   393.67     0  05:18           0        3.03      -4.657
  CC-storage           STORAGE       0.00   485.24     0  03:03           0        4.55       0.796
  XR-storage           STORAGE     309.18   309.18     0  03:01        6.88        7.48       0.001
  
  
  **********************
  Node Surcharge Summary
  **********************
  
  Surcharging occurs when water rises above the top of the highest conduit.
  ---------------------------------------------------------------------
                                               Max. Height   Min. Depth
                                   Hours       Above Crown    Below Rim
  Node                 Type      Surcharged         Meters       Meters
  ---------------------------------------------------------------------
  WS02006109           JUNCTION        0.61          0.056        1.764
  WS02006232           JUNCTION        0.35          0.033        1.447
  WS02006238           JUNCTION        0.09          0.014        1.416
  WS02006252           JUNCTION        0.70          0.187        0.913
  WS02006228           JUNCTION        0.59          0.064        2.136
  YS02001754           JUNCTION        2.01          0.125        1.025
  YS02001762           JUNCTION        4.61          0.483        0.667
  YS02001765           JUNCTION        4.08          0.481        0.619
  YS02001767           JUNCTION        3.92          0.504        0.526
  YS02001770           JUNCTION        3.61          0.556        0.364
  YS02001774           JUNCTION        4.21          0.686        0.364
  YS02001779           JUNCTION        1.33          0.493        0.187
  YS02001759           JUNCTION        4.98          0.463        0.747
  YS02001641           JUNCTION        4.13          0.358        0.742
  YS02001644           JUNCTION        4.16          0.361        0.559
  YS02001652           JUNCTION        2.68          0.148        0.982
  YS02001633           JUNCTION        3.97          0.303        0.757
  YS02001649           JUNCTION        4.82          0.385        0.665
  YS02001757           JUNCTION        5.23          0.516        0.694
  YS02001625           JUNCTION        2.93          0.150        0.630
  YS02163301           JUNCTION        3.71          0.256        0.774
  YS02163601           JUNCTION        4.75          0.389        0.691
  YS02164001           JUNCTION        4.04          0.338        0.762
  YS02001647           JUNCTION        2.88          0.183        0.717
  YS02001790           JUNCTION        0.31          1.021        0.136
  YS02001791           JUNCTION        0.39          1.364        0.556
  YS02001793           JUNCTION        0.70          0.907        1.693
  
  
  *********************
  Node Flooding Summary
  *********************
  
  Flooding refers to all water that overflows a node, whether it ponds or not.
  --------------------------------------------------------------------------
                                                             Total   Maximum
                                 Maximum   Time of Max       Flood    Ponded
                        Hours       Rate    Occurrence      Volume     Depth
  Node                 Flooded       LPS   days hr:min    10^6 ltr    Meters
  --------------------------------------------------------------------------
  JK-storage              0.19    239.03      0  04:06       0.090     0.000
  XR-storage              4.18    305.03      0  02:40       2.161     0.000
  
  
  **********************
  Storage Volume Summary
  **********************
  
  --------------------------------------------------------------------------------------------------
                         Average     Avg  Evap Exfil       Maximum     Max    Time of Max    Maximum
                          Volume    Pcnt  Pcnt  Pcnt        Volume    Pcnt     Occurrence    Outflow
  Storage Unit           1000 m3    Full  Loss  Loss       1000 m3    Full    days hr:min        LPS
  --------------------------------------------------------------------------------------------------
  JK-storage               0.093      32     0     0         0.291     100       0  04:03     599.92
  CC-storage               1.280       8     0     0         2.047      13       0  06:33     399.90
  XR-storage               0.902      97     0     0         0.926     100       0  02:33     379.82
  
  
  ***********************
  Outfall Loading Summary
  ***********************
  
  -----------------------------------------------------------
                         Flow       Avg       Max       Total
                         Freq      Flow      Flow      Volume
  Outfall Node           Pcnt       LPS       LPS    10^6 ltr
  -----------------------------------------------------------
  WSC                   99.99    413.37    566.88      10.306
  3                     50.35    154.90    473.41       1.461
  4                      9.17     16.69     49.80       0.038
  5                      0.00      0.00      0.00       0.000
  -----------------------------------------------------------
  System                39.88    584.97   1040.29      11.805
  
  
  ********************
  Link Flow Summary
  ********************
  
  -----------------------------------------------------------------------------
                                 Maximum  Time of Max   Maximum    Max/    Max/
                                  |Flow|   Occurrence   |Veloc|    Full    Full
  Link                 Type          LPS  days hr:min     m/sec    Flow   Depth
  -----------------------------------------------------------------------------
  WS02003066WSF200     CONDUIT    452.69     0  02:51      2.71    0.08    0.21
  WS02006287WS02006284 CONDUIT    183.46     0  02:20      1.56    0.09    0.21
  WS02006284WS02006280 CONDUIT    183.56     0  02:20      1.80    0.08    0.19
  WS02006280WS02006229 CONDUIT    183.56     0  02:20      2.89    0.04    0.14
  WS02006229WS02006228 CONDUIT    451.37     0  02:43      0.90    1.49    1.00
  WS02006256WS02006235 CONDUIT    166.25     0  00:01      2.58    1.76    1.00
  WS02006253WS02006251 CONDUIT     35.47     0  02:20      0.47    0.11    0.86
  WS02006252WS02006251 CONDUIT    400.06     0  03:10      3.18    1.47    1.00
  WS02006251WS02006249 CONDUIT    400.84     0  03:10      1.18    1.16    0.83
  WS02006249WS02006248 CONDUIT    354.22     0  03:10      1.17    1.94    0.78
  WS02006248WS02006247 CONDUIT    349.26     0  06:10      1.15    0.76    0.80
  WS02006247WS02006245 CONDUIT    345.04     0  06:11      1.12    2.74    0.82
  WS02006245WS02006243 CONDUIT    343.37     0  03:11      1.17    1.02    0.83
  WS02006243WS02006242 CONDUIT    338.58     0  03:11      1.05    0.72    0.92
  WS02006242WS02006240 CONDUIT    332.60     0  07:30      0.99    1.32    0.96
  WS02006240WS02006239 CONDUIT    329.21     0  07:30      1.04    1.04    0.94
  WS02006239WS02006238 CONDUIT    325.73     0  07:30      0.93    1.04    1.00
  WS02006238WS02006235 CONDUIT    323.33     0  07:30      1.25    0.72    1.00
  WS02006235WS02006234 CONDUIT    373.79     0  07:32      1.02    3.94    0.96
  WS02006234WS02006232 CONDUIT    370.75     0  07:33      1.13    0.75    0.98
  WS02006232WS02006231 CONDUIT    370.47     0  07:33      1.03    0.78    0.91
  WS02006231WS02006230 CONDUIT    367.90     0  07:33      1.35    5.58    0.77
  WS02006230WS02006229 CONDUIT    376.87     0  07:34      0.98    8.39    1.00
  WS02006228WS02006109 CONDUIT    451.37     0  02:43      0.90    1.97    1.00
  WS02006116WS02004401 CONDUIT    454.32     0  02:46      0.73    0.63    0.77
  WS02006115WS02006116 CONDUIT    454.77     0  02:45      0.79    0.58    0.69
  WS02006113WS02006111 CONDUIT    465.16     0  02:43      2.31    0.56    0.42
  WS02006112WS02006115 CONDUIT    455.62     0  02:44      0.66    0.27    0.82
  WS02006111WS02006112 CONDUIT    454.00     0  02:43      1.32    0.22    0.66
  WS02006110WS02006113 CONDUIT    452.69     0  02:43      1.11    0.41    0.76
  WS02006109WS02006110 CONDUIT    452.61     0  02:43      0.91    0.87    0.97
  WS02004411WS02004412 CONDUIT    452.85     0  02:50      0.85    0.64    0.64
  WS02004401WS02004402 CONDUIT    454.07     0  02:46      0.77    0.55    0.80
  WS02004413WS02003067 CONDUIT    452.68     0  02:51      1.01    0.19    0.55
  WS02004412WS02004413 CONDUIT    452.73     0  02:50      0.74    0.30    0.73
  WS02004410WS02004411 CONDUIT    453.09     0  02:49      0.87    0.62    0.63
  WS02004409WS02004410 CONDUIT    453.47     0  02:49      0.90    0.59    0.61
  WS02004407WS02004409 CONDUIT    454.00     0  02:48      1.38    0.16    0.44
  WS02004406WS02004407 CONDUIT    454.01     0  02:48      0.94    0.20    0.59
  WS02004405WS02004406 CONDUIT    454.03     0  02:47      0.66    0.90    0.91
  WS02004404WS02004405 CONDUIT    454.01     0  02:47      0.84    4.45    0.91
  WS02004403WS02004404 CONDUIT    453.87     0  02:47      0.74    0.33    0.87
  WS02004402WS02004403 CONDUIT    453.94     0  02:47      0.75    0.65    0.82
  WS02004139WS02001211 CONDUIT    373.88     0  01:40      0.58    0.47    0.56
  WS02004138WS02004139 CONDUIT    379.22     0  01:40      2.39    0.08    0.42
  WS02003067WS02003066 CONDUIT    452.69     0  02:51      1.10    0.15    0.39
  WS02001213WS02003059 CONDUIT    374.26     0  01:41      0.67    0.62    0.67
  WS02001212WS02001213 CONDUIT    375.84     0  01:41      1.31    0.58    0.39
  WS02001211WS02001212 CONDUIT    376.94     0  01:40      0.77    0.29    0.60
  WS02003072WS02003073 CONDUIT    565.10     0  02:59      1.45    1.22    0.38
  WS02003069WS02003072 CONDUIT    565.09     0  02:58      1.38    0.27    0.39
  WS02003060WS02003069 CONDUIT    564.77     0  02:58      1.65    0.22    0.34
  WS02003059WS02003060 CONDUIT    371.67     0  01:42      0.93    0.24    0.53
  HS02004901HS02004770 CONDUIT      9.11     0  02:16      0.04    0.03    0.31
  HS02004876HS02004881 CONDUIT     30.74     0  02:20      0.52    0.33    0.09
  HS02004870HS02004876 CONDUIT     24.40     0  02:20      0.36    0.02    0.10
  HS02004842HS02004848 CONDUIT      5.01     0  02:33      0.03    0.00    0.27
  HS02004837HS02004842 CONDUIT      5.17     0  02:33      0.41    0.00    0.29
  HS02004830HS02004837 CONDUIT     22.01     0  02:19      0.43    0.02    0.07
  HS02004824HS02004830 CONDUIT     22.16     0  02:20      0.47    0.03    0.07
  HS02004817HS02004824 CONDUIT     35.16     0  02:23      0.17    0.02    0.39
  HS02004770HS02004777 CONDUIT     46.49     0  02:16      0.21    0.09    0.32
  HS02004799HS02004480 CONDUIT    115.29     0  02:17      0.56    0.15    0.30
  HS02004792HS02004799 CONDUIT    105.36     0  02:17      0.64    0.06    0.23
  HS02004788HS02004792 CONDUIT     61.30     0  02:18      0.80    0.04    0.11
  HS02004785HS02004788 CONDUIT     46.02     0  02:18      0.48    0.35    0.14
  HS02004777HS02004785 CONDUIT     46.00     0  02:17      0.25    0.06    0.26
  HS02004480HS02004478 CONDUIT    136.16     0  02:18      0.92    0.57    0.21
  HS02004479HS02004480 CONDUIT     21.29     0  02:21      0.16    0.02    0.29
  HS02004862HS02004870 CONDUIT     17.76     0  02:21      0.44    0.02    0.06
  HS02004848HS02004852 CONDUIT      7.04     0  02:19      0.29    0.01    0.03
  HS02004856HS02004862 CONDUIT     11.94     0  02:20      0.32    0.01    0.05
  HS02004852HS02004856 CONDUIT      7.01     0  02:21      0.11    0.01    0.09
  HS02004802HS02004478 CONDUIT     48.34     0  02:23      0.29    0.04    0.24
  HS02004478WS02006287 CONDUIT    183.48     0  02:19      1.26    0.05    0.16
  HS02004817HS02004807 CONDUIT     36.17     0  02:25      0.10    0.02    0.50
  HS02004807HS02004802 CONDUIT     48.08     0  02:22      0.24    0.09    0.29
  YS02001759YS02001757 CONDUIT    184.86     0  03:07      0.24    0.13    1.00
  YS02001762YS02001759 CONDUIT    122.09     0  03:36      0.18    0.14    1.00
  YS02001765YS02001762 CONDUIT    119.85     0  03:38      0.23    0.11    1.00
  YS02001770YS02001767 CONDUIT    155.37     0  03:43      0.31    0.62    1.00
  YS02001774YS02001770 CONDUIT     99.02     0  03:39      0.14    0.06    1.00
  YS02001779YS02001774 CONDUIT     94.22     0  03:41      0.13    0.05    1.00
  YS02001649YS02001757 CONDUIT    315.00     0  03:26      0.40    0.19    1.00
  YS02001767YS02001765 CONDUIT     97.82     0  03:36      0.25    0.12    1.00
  YS02006561YS02001783 CONDUIT    293.07     0  03:00      1.75    0.15    0.45
  YS02001783YS02001784 CONDUIT    293.07     0  02:59      1.21    0.40    0.73
  YS02001784YS02001785 CONDUIT    294.12     0  02:59      1.28    0.68    0.78
  YS02001788YS02001790 CONDUIT    294.25     0  03:00      1.84    0.22    0.92
  YS02001790YS02001791 CONDUIT    294.39     0  03:00      2.13    0.32    1.00
  YS02001791YS02001793 CONDUIT    303.90     0  03:54      4.30    0.13    1.00
  YS02001910YS02001907 CONDUIT     91.28     0  03:02      0.49    0.05    0.72
  YS02001786YS02001788 CONDUIT    294.17     0  03:00      1.71    0.57    0.82
  YS02001915YS02001910 CONDUIT     91.20     0  03:01      0.44    0.05    0.51
  YS02001918YS02001915 CONDUIT     30.85     0  03:03      0.44    0.02    0.25
  YS02001923YS02001920 CONDUIT     28.02     0  03:02      0.43    0.01    0.14
  YS02001926YS02001923 CONDUIT     27.98     0  03:02      0.47    0.04    0.13
  YS02001929YS02001926 CONDUIT     28.00     0  03:01      0.50    0.01    0.12
  YS02001920YS02001918 CONDUIT     30.87     0  03:03      0.45    0.03    0.14
  YS02001629YS02163301 CONDUIT    105.80     0  04:02      0.14    0.13    1.00
  YS02001619YS02001622 CONDUIT     98.69     0  03:37      0.63    0.15    0.84
  YS02001622YS02001625 CONDUIT    104.72     0  03:33      0.24    0.06    0.92
  YS02001625YS02001629 CONDUIT    131.71     0  03:35      0.24    0.06    0.92
  YS02163301YS02001633 CONDUIT     74.20     0  03:03      0.10    0.07    1.00
  YS02163601YS02164001 CONDUIT    159.22     0  03:21      0.21    0.14    1.00
  YS02164001YS02001641 CONDUIT    161.88     0  03:42      0.21    0.22    1.00
  YS02001641YS02001644 CONDUIT    162.59     0  03:42      0.21    0.53    1.00
  YS02001647YS02001649 CONDUIT    247.30     0  03:41      0.33    0.13    1.00
  YS02006553YS02006556 CONDUIT    200.57     0  03:03      0.30    0.17    0.80
  YS02006556YS02006558 CONDUIT    200.77     0  03:03      0.29    0.16    0.83
  YSB6556YSB1171       CONDUIT     11.52     0  02:21      0.05    0.01    0.56
  YS02001907YS02006553 CONDUIT    200.29     0  03:02      0.24    0.24    0.91
  YS02006558YS02006561 CONDUIT    293.07     0  03:00      2.25    0.65    0.47
  YS02001633YS02163601 CONDUIT    155.21     0  03:41      0.20    0.16    1.00
  YS02001644YS02001647 CONDUIT    200.25     0  03:15      0.27    0.12    1.00
  YS02001745YS02001748 CONDUIT    109.69     0  06:04      1.38    0.04    0.43
  YS02001748YS02001751 CONDUIT    222.86     0  03:32      1.06    0.11    0.78
  YS02001751YS02001754 CONDUIT     83.74     0  03:05      0.94    0.04    0.96
  YS02001754YS02001757 CONDUIT    190.62     0  03:28      0.33    0.08    1.00
  YS02001882YS02001884 CONDUIT      3.52     0  02:08      0.06    0.00    0.45
  YS02001884YS02001887 CONDUIT     10.10     0  02:08      0.06    0.01    0.54
  YS02001890YS02001895 CONDUIT    110.03     0  02:51      0.28    0.05    0.51
  YS02001895YS02001898 CONDUIT    109.89     0  02:52      0.47    0.19    0.37
  YS02001898YS02001901 CONDUIT    109.76     0  02:52      0.32    0.07    0.45
  YS02001901YS02001904 CONDUIT    109.38     0  02:53      0.28    0.17    0.50
  YS02001904YS02001907 CONDUIT    109.43     0  02:55      0.20    0.04    0.66
  YS02001887YS02001890 CONDUIT    110.36     0  02:49      0.23    0.19    0.59
  YS02001652YS02001649 CONDUIT    211.62     0  03:30      0.31    0.10    1.00
  YS02001655YS02001652 CONDUIT    104.78     0  03:06      1.01    0.05    0.97
  YS02001658YS02001655 CONDUIT    216.04     0  03:29      1.22    0.09    0.77
  YS02001661YS02001658 CONDUIT    113.57     0  04:53      1.42    0.04    0.44
  YS02001664YS02001661 CONDUIT     78.70     0  02:49      1.07    0.02    0.21
  YSB1154YSB6556       CONDUIT     11.39     0  02:18      0.19    0.02    0.45
  YSB1174YSB1171       CONDUIT     10.51     0  02:12      0.05    0.02    0.56
  YSB1171HS02004479    CONDUIT     21.12     0  02:20      0.54    0.01    0.43
  HS02004881HS02006253 CONDUIT     34.41     0  02:19      1.59    0.01    0.21
  YS02001793JiankangQianchi CONDUIT    393.67     0  05:18     13.04    0.03    1.00
  YS02001757CaochengTiaoxuchi CONDUIT    485.24     0  03:03      1.03    0.21    0.87
  WSF200WS02003060     CONDUIT    452.39     0  02:51      1.94    0.10    0.27
  1                    CONDUIT    566.88     0  03:00      2.84    0.20    0.30
  2                    CONDUIT     49.80     0  07:30      3.97    0.12    0.23
  3                    CONDUIT    473.41     0  03:00      9.71    0.75    0.65
  4                    CONDUIT      0.00     0  00:00      0.00    0.00    0.00
  CC-Pump-1            PUMP       199.94     0  03:10              1.00
  CC-Pump-2            PUMP       200.00     0  02:40              1.00
  JK-Pump-1            PUMP       300.00     0  00:00              1.00
  JK-Pump-2            PUMP       300.00     0  02:40              1.00
  XR-Pump-1            PUMP        95.00     0  00:00              1.00
  XR-Pump-2            PUMP        95.00     0  01:00              1.00
  XR-Pump-3            PUMP        95.00     0  00:20              1.00
  XR-Pump-4            PUMP        95.00     0  00:20              1.00
  
  
  ***************************
  Flow Classification Summary
  ***************************
  
  -------------------------------------------------------------------------------------
                      Adjusted    ---------- Fraction of Time in Flow Class ---------- 
                       /Actual         Up    Down  Sub   Sup   Up    Down  Norm  Inlet 
  Conduit               Length    Dry  Dry   Dry   Crit  Crit  Crit  Crit  Ltd   Ctrl  
  -------------------------------------------------------------------------------------
  WS02003066WSF200        1.00   0.06  0.01  0.00  0.00  0.93  0.00  0.00  0.76  0.00
  WS02006287WS02006284    1.00   0.05  0.02  0.00  0.69  0.25  0.00  0.00  0.78  0.00
  WS02006284WS02006280    1.00   0.05  0.00  0.00  0.00  0.00  0.00  0.95  0.00  0.00
  WS02006280WS02006229    1.00   0.05  0.00  0.00  0.00  0.00  0.00  0.95  0.00  0.00
  WS02006229WS02006228    1.00   0.00  0.00  0.00  0.98  0.00  0.00  0.02  0.00  0.00
  WS02006256WS02006235    1.00   0.00  0.00  0.00  1.00  0.00  0.00  0.00  0.00  0.00
  WS02006253WS02006251    1.00   0.03  0.01  0.00  0.95  0.00  0.00  0.00  0.00  0.00
  WS02006252WS02006251    1.00   0.10  0.00  0.00  0.00  0.00  0.90  0.00  0.00  0.00
  WS02006251WS02006249    1.00   0.00  0.00  0.00  1.00  0.00  0.00  0.00  0.36  0.00
  WS02006249WS02006248    1.00   0.00  0.02  0.00  0.78  0.00  0.20  0.00  0.00  0.00
  WS02006248WS02006247    1.00   0.03  0.00  0.00  0.97  0.00  0.00  0.00  0.27  0.00
  WS02006247WS02006245    1.00   0.02  0.00  0.00  0.97  0.00  0.00  0.00  0.00  0.00
  WS02006245WS02006243    1.00   0.01  0.00  0.00  0.93  0.00  0.00  0.05  0.02  0.00
  WS02006243WS02006242    1.00   0.01  0.00  0.00  0.99  0.00  0.00  0.00  0.27  0.00
  WS02006242WS02006240    1.00   0.00  0.00  0.00  1.00  0.00  0.00  0.00  0.00  0.00
  WS02006240WS02006239    1.00   0.00  0.00  0.00  0.95  0.00  0.00  0.05  0.01  0.00
  WS02006239WS02006238    1.00   0.00  0.00  0.00  1.00  0.00  0.00  0.00  0.02  0.00
  WS02006238WS02006235    1.00   0.00  0.00  0.00  1.00  0.00  0.00  0.00  0.00  0.00
  WS02006235WS02006234    1.00   0.00  0.00  0.00  0.95  0.00  0.05  0.00  0.00  0.00
  WS02006234WS02006232    1.00   0.00  0.00  0.00  1.00  0.00  0.00  0.00  0.12  0.00
  WS02006232WS02006231    1.00   0.00  0.00  0.00  0.99  0.00  0.01  0.00  0.00  0.00
  WS02006231WS02006230    1.00   0.00  0.00  0.00  0.29  0.00  0.71  0.00  0.00  0.00
  WS02006230WS02006229    1.00   0.00  0.00  0.00  0.98  0.00  0.00  0.02  0.01  0.00
  WS02006228WS02006109    1.00   0.00  0.00  0.00  1.00  0.00  0.00  0.00  0.01  0.00
  WS02006116WS02004401    1.00   0.03  0.00  0.00  0.97  0.00  0.00  0.00  0.00  0.00
  WS02006115WS02006116    1.00   0.03  0.00  0.00  0.96  0.00  0.00  0.01  0.00  0.00
  WS02006113WS02006111    1.00   0.02  0.00  0.00  0.00  0.98  0.00  0.00  0.16  0.00
  WS02006112WS02006115    1.00   0.03  0.00  0.00  0.97  0.00  0.00  0.00  0.00  0.00
  WS02006111WS02006112    1.00   0.03  0.00  0.00  0.97  0.00  0.00  0.00  0.98  0.00
  WS02006110WS02006113    1.00   0.01  0.01  0.00  0.98  0.00  0.00  0.00  0.00  0.00
  WS02006109WS02006110    1.00   0.00  0.01  0.00  0.98  0.00  0.01  0.00  0.00  0.00
  WS02004411WS02004412    1.00   0.05  0.00  0.00  0.95  0.00  0.00  0.00  0.00  0.00
  WS02004401WS02004402    1.00   0.03  0.00  0.00  0.97  0.00  0.00  0.00  0.00  0.00
  WS02004413WS02003067    1.00   0.05  0.02  0.00  0.00  0.00  0.94  0.00  0.00  0.00
  WS02004412WS02004413    1.00   0.05  0.00  0.00  0.95  0.00  0.00  0.00  0.03  0.00
  WS02004410WS02004411    1.00   0.05  0.00  0.00  0.95  0.00  0.00  0.00  0.04  0.00
  WS02004409WS02004410    1.00   0.04  0.00  0.00  0.96  0.00  0.00  0.00  0.04  0.00
  WS02004407WS02004409    1.00   0.04  0.00  0.00  0.95  0.00  0.00  0.00  0.89  0.00
  WS02004406WS02004407    1.00   0.00  0.04  0.00  0.96  0.00  0.00  0.00  0.00  0.00
  WS02004405WS02004406    1.00   0.00  0.00  0.00  1.00  0.00  0.00  0.00  0.00  0.00
  WS02004404WS02004405    1.00   0.00  0.00  0.00  1.00  0.00  0.00  0.00  0.00  0.00
  WS02004403WS02004404    1.00   0.00  0.03  0.00  0.97  0.00  0.00  0.00  0.01  0.00
  WS02004402WS02004403    1.00   0.03  0.00  0.00  0.97  0.00  0.00  0.00  0.00  0.00
  WS02004139WS02001211    1.00   0.00  0.00  0.00  0.99  0.00  0.01  0.00  0.00  0.00
  WS02004138WS02004139    1.00   0.00  0.00  0.00  0.99  0.01  0.00  0.00  1.00  0.00
  WS02003067WS02003066    1.00   0.06  0.01  0.00  0.93  0.00  0.00  0.00  0.00  0.00
  WS02001213WS02003059    1.00   0.00  0.01  0.00  0.99  0.00  0.00  0.00  0.00  0.00
  WS02001212WS02001213    1.00   0.01  0.00  0.00  0.58  0.00  0.41  0.00  0.00  0.00
  WS02001211WS02001212    1.00   0.00  0.01  0.00  0.99  0.00  0.00  0.00  0.00  0.00
  WS02003072WS02003073    1.00   0.00  0.00  0.00  0.00  0.00  0.00  1.00  0.00  0.00
  WS02003069WS02003072    1.00   0.00  0.00  0.00  0.99  0.01  0.00  0.00  0.42  0.00
  WS02003060WS02003069    1.00   0.00  0.00  0.00  0.99  0.01  0.00  0.00  0.25  0.00
  WS02003059WS02003060    1.00   0.00  0.00  0.00  0.99  0.01  0.00  0.00  0.02  0.00
  HS02004901HS02004770    1.00   0.05  0.00  0.00  0.95  0.00  0.00  0.00  0.02  0.00
  HS02004876HS02004881    1.00   0.03  0.00  0.00  0.97  0.00  0.00  0.00  0.00  0.00
  HS02004870HS02004876    1.00   0.01  0.00  0.00  0.99  0.00  0.00  0.00  0.95  0.00
  HS02004842HS02004848    1.00   0.00  0.05  0.00  0.95  0.00  0.00  0.00  0.69  0.00
  HS02004837HS02004842    1.00   0.00  0.00  0.00  0.99  0.01  0.00  0.00  0.11  0.00
  HS02004830HS02004837    1.00   0.00  0.00  0.00  1.00  0.00  0.00  0.00  0.99  0.00
  HS02004824HS02004830    1.00   0.00  0.00  0.00  1.00  0.00  0.00  0.00  0.00  0.00
  HS02004817HS02004824    1.00   0.00  0.00  0.00  1.00  0.00  0.00  0.00  1.00  0.00
  HS02004770HS02004777    1.00   0.00  0.05  0.00  0.95  0.00  0.00  0.00  0.07  0.00
  HS02004799HS02004480    1.00   0.00  0.03  0.00  0.93  0.00  0.03  0.00  0.00  0.00
  HS02004792HS02004799    1.00   0.00  0.00  0.00  0.98  0.02  0.00  0.00  0.98  0.00
  HS02004788HS02004792    1.00   0.00  0.00  0.00  0.99  0.01  0.00  0.00  0.98  0.00
  HS02004785HS02004788    1.00   0.00  0.00  0.00  1.00  0.00  0.00  0.00  0.00  0.00
  HS02004777HS02004785    1.00   0.00  0.00  0.00  1.00  0.00  0.00  0.00  0.21  0.00
  HS02004480HS02004478    1.00   0.05  0.00  0.00  0.72  0.00  0.00  0.23  0.00  0.00
  HS02004479HS02004480    1.00   0.03  0.00  0.00  0.97  0.00  0.00  0.00  0.16  0.00
  HS02004862HS02004870    1.00   0.00  0.00  0.00  1.00  0.00  0.00  0.00  0.06  0.00
  HS02004848HS02004852    1.00   0.05  0.00  0.00  0.95  0.00  0.00  0.00  0.70  0.00
  HS02004856HS02004862    1.00   0.00  0.08  0.00  0.92  0.00  0.00  0.00  0.74  0.00
  HS02004852HS02004856    1.00   0.05  0.01  0.00  0.94  0.00  0.00  0.00  0.83  0.00
  HS02004802HS02004478    1.00   0.05  0.01  0.00  0.94  0.00  0.00  0.00  0.01  0.00
  HS02004478WS02006287    1.00   0.06  0.00  0.00  0.88  0.06  0.00  0.00  0.80  0.00
  HS02004817HS02004807    1.00   0.00  0.05  0.00  0.95  0.00  0.00  0.00  0.00  0.00
  HS02004807HS02004802    1.00   0.05  0.00  0.00  0.95  0.00  0.00  0.00  0.01  0.00
  YS02001759YS02001757    1.00   0.00  0.00  0.00  1.00  0.00  0.00  0.00  0.17  0.00
  YS02001762YS02001759    1.00   0.00  0.00  0.00  1.00  0.00  0.00  0.00  0.04  0.00
  YS02001765YS02001762    1.00   0.00  0.00  0.00  1.00  0.00  0.00  0.00  0.22  0.00
  YS02001770YS02001767    1.00   0.00  0.00  0.00  1.00  0.00  0.00  0.00  0.00  0.00
  YS02001774YS02001770    1.00   0.00  0.06  0.00  0.94  0.00  0.00  0.00  0.07  0.00
  YS02001779YS02001774    1.00   0.00  0.00  0.00  1.00  0.00  0.00  0.00  0.27  0.00
  YS02001649YS02001757    1.00   0.00  0.00  0.00  1.00  0.00  0.00  0.00  0.19  0.00
  YS02001767YS02001765    1.00   0.00  0.00  0.00  1.00  0.00  0.00  0.00  0.01  0.00
  YS02006561YS02001783    1.00   0.08  0.00  0.00  0.06  0.86  0.00  0.00  0.73  0.00
  YS02001783YS02001784    1.00   0.00  0.08  0.00  0.92  0.00  0.00  0.00  0.00  0.00
  YS02001784YS02001785    1.00   0.00  0.00  0.00  1.00  0.00  0.00  0.00  0.25  0.00
  YS02001788YS02001790    1.00   0.00  0.00  0.00  0.19  0.81  0.00  0.00  0.74  0.00
  YS02001790YS02001791    1.00   0.00  0.00  0.00  0.15  0.85  0.00  0.00  0.44  0.00
  YS02001791YS02001793    1.00   0.00  0.00  0.00  0.18  0.82  0.00  0.00  0.04  0.00
  YS02001910YS02001907    1.00   0.00  0.00  0.00  0.97  0.00  0.00  0.03  0.13  0.00
  YS02001786YS02001788    1.00   0.00  0.00  0.00  0.16  0.84  0.00  0.00  0.00  0.00
  YS02001915YS02001910    1.00   0.00  0.00  0.00  0.99  0.01  0.00  0.00  0.24  0.00
  YS02001918YS02001915    1.00   0.00  0.01  0.00  0.98  0.02  0.00  0.00  0.81  0.00
  YS02001923YS02001920    1.00   0.00  0.00  0.00  1.00  0.00  0.00  0.00  1.00  0.00
  YS02001926YS02001923    1.00   0.00  0.04  0.00  0.00  0.00  0.96  0.00  0.00  0.00
  YS02001929YS02001926    1.00   0.00  0.05  0.00  0.95  0.00  0.00  0.00  0.87  0.00
  YS02001920YS02001918    1.00   0.00  0.01  0.00  0.99  0.00  0.00  0.00  0.00  0.00
  YS02001629YS02163301    1.00   0.07  0.00  0.00  0.93  0.00  0.00  0.00  0.00  0.00
  YS02001619YS02001622    1.00   0.05  0.00  0.00  0.95  0.00  0.00  0.00  0.00  0.00
  YS02001622YS02001625    1.00   0.05  0.00  0.00  0.95  0.00  0.00  0.00  0.13  0.00
  YS02001625YS02001629    1.00   0.05  0.03  0.00  0.90  0.00  0.02  0.00  0.00  0.00
  YS02163301YS02001633    1.00   0.00  0.07  0.00  0.93  0.00  0.00  0.00  0.00  0.00
  YS02163601YS02164001    1.00   0.00  0.04  0.00  0.96  0.00  0.00  0.00  0.00  0.00
  YS02164001YS02001641    1.00   0.01  0.03  0.00  0.96  0.00  0.00  0.00  0.07  0.00
  YS02001641YS02001644    1.00   0.00  0.01  0.00  0.99  0.00  0.00  0.00  0.00  0.00
  YS02001647YS02001649    1.00   0.00  0.08  0.00  0.92  0.00  0.00  0.00  0.01  0.00
  YS02006553YS02006556    1.00   0.02  0.00  0.00  0.98  0.00  0.00  0.00  0.03  0.00
  YS02006556YS02006558    1.00   0.00  0.00  0.00  1.00  0.00  0.00  0.00  0.00  0.00
  YSB6556YSB1171          1.00   0.03  0.02  0.00  0.95  0.00  0.00  0.00  0.00  0.00
  YS02001907YS02006553    1.00   0.00  0.03  0.00  0.97  0.00  0.00  0.00  0.00  0.00
  YS02006558YS02006561    1.00   0.08  0.00  0.00  0.00  0.92  0.00  0.00  0.72  0.00
  YS02001633YS02163601    1.00   0.00  0.01  0.00  0.99  0.00  0.00  0.00  0.20  0.00
  YS02001644YS02001647    1.00   0.00  0.08  0.00  0.92  0.00  0.00  0.00  0.00  0.00
  YS02001745YS02001748    1.00   0.00  0.00  0.00  0.83  0.02  0.00  0.15  0.26  0.00
  YS02001748YS02001751    1.00   0.00  0.00  0.00  0.97  0.03  0.00  0.00  0.25  0.00
  YS02001751YS02001754    1.00   0.00  0.00  0.00  0.91  0.00  0.00  0.08  0.02  0.00
  YS02001754YS02001757    1.00   0.00  0.00  0.00  0.99  0.01  0.00  0.00  0.26  0.00
  YS02001882YS02001884    1.00   0.07  0.00  0.00  0.93  0.00  0.00  0.00  0.00  0.00
  YS02001884YS02001887    1.00   0.04  0.01  0.00  0.95  0.00  0.00  0.00  0.00  0.00
  YS02001890YS02001895    1.00   0.00  0.07  0.00  0.93  0.00  0.00  0.00  0.00  0.00
  YS02001895YS02001898    1.00   0.07  0.00  0.00  0.92  0.00  0.01  0.00  0.00  0.00
  YS02001898YS02001901    1.00   0.07  0.00  0.00  0.93  0.00  0.00  0.00  0.02  0.00
  YS02001901YS02001904    1.00   0.07  0.00  0.00  0.93  0.00  0.00  0.00  0.00  0.00
  YS02001904YS02001907    1.00   0.00  0.07  0.00  0.93  0.00  0.00  0.00  0.00  0.00
  YS02001887YS02001890    1.00   0.00  0.00  0.00  0.97  0.00  0.03  0.00  0.00  0.00
  YS02001652YS02001649    1.00   0.00  0.00  0.00  1.00  0.00  0.00  0.00  0.26  0.00
  YS02001655YS02001652    1.00   0.00  0.00  0.00  0.92  0.00  0.00  0.08  0.02  0.00
  YS02001658YS02001655    1.00   0.00  0.06  0.00  0.90  0.03  0.00  0.00  0.13  0.00
  YS02001661YS02001658    1.00   0.06  0.00  0.00  0.83  0.11  0.00  0.00  0.29  0.00
  YS02001664YS02001661    1.00   0.05  0.00  0.00  0.77  0.18  0.00  0.00  0.86  0.00
  YSB1154YSB6556          1.00   0.05  0.00  0.00  0.95  0.00  0.00  0.00  0.02  0.00
  YSB1174YSB1171          1.00   0.03  0.01  0.00  0.96  0.00  0.00  0.00  0.00  0.00
  YSB1171HS02004479       1.00   0.03  0.00  0.00  0.96  0.00  0.00  0.00  0.13  0.00
  HS02004881HS02006253    1.00   0.04  0.00  0.00  0.54  0.03  0.00  0.39  0.40  0.00
  YS02001793JiankangQianchi    1.00   0.00  0.00  0.00  0.63  0.37  0.00  0.00  0.38  0.00
  YS02001757CaochengTiaoxuchi    1.00   0.00  0.10  0.00  0.90  0.00  0.00  0.00  0.00  0.00
  WSF200WS02003060        1.00   0.00  0.06  0.00  0.51  0.44  0.00  0.00  0.47  0.00
  1                       1.00   0.00  0.00  0.00  0.00  1.00  0.00  0.00  0.44  0.00
  2                       1.00   0.91  0.00  0.00  0.00  0.09  0.00  0.00  0.03  0.00
  3                       1.00   0.49  0.00  0.00  0.00  0.51  0.00  0.00  0.41  0.00
  4                       1.00   1.00  0.00  0.00  0.00  0.00  0.00  0.00  0.00  0.00
  
  
  *************************
  Conduit Surcharge Summary
  *************************
  
  ----------------------------------------------------------------------------
                                                           Hours        Hours 
                         --------- Hours Full --------   Above Full   Capacity
  Conduit                Both Ends  Upstream  Dnstream   Normal Flow   Limited
  ----------------------------------------------------------------------------
  WS02006229WS02006228        0.59      0.62      0.59      1.89         0.59
  WS02006256WS02006235        5.54      5.54      6.84      2.64         0.01
  WS02006252WS02006251        0.25      0.25      0.70      0.58         0.01
  WS02006251WS02006249        0.01      0.01      0.01      0.24         0.01
  WS02006249WS02006248        0.01      0.01      0.01      2.52         0.01
  WS02006247WS02006245        0.01      0.01      0.01      3.30         0.01
  WS02006245WS02006243        0.01      0.01      0.01      0.03         0.01
  WS02006242WS02006240        0.01      0.01      0.08      0.69         0.01
  WS02006240WS02006239        0.01      0.01      0.01      0.05         0.01
  WS02006239WS02006238        0.05      0.05      0.09      0.05         0.01
  WS02006238WS02006235        0.06      0.06      0.18      0.01         0.01
  WS02006235WS02006234        0.01      0.01      0.01      5.50         0.01
  WS02006234WS02006232        0.01      0.01      0.35      0.01         0.01
  WS02006232WS02006231        0.01      0.01      0.35      0.01         0.01
  WS02006231WS02006230        0.01      0.01      0.01      5.67         0.01
  WS02006230WS02006229        1.04      1.42      1.04      5.81         1.04
  WS02006228WS02006109        0.61      0.85      0.61      3.40         0.61
  WS02006111WS02006112        0.01      0.01      1.92      0.01         0.01
  WS02006110WS02006113        0.01      0.01      0.67      0.01         0.01
  WS02006109WS02006110        0.01      0.01      0.85      0.01         0.01
  WS02004404WS02004405        0.01      0.01      0.01      5.58         0.01
  WS02003072WS02003073        0.01      0.01      0.01      2.51         0.01
  YS02001759YS02001757        4.98      4.98      5.23      0.01         0.01
  YS02001762YS02001759        4.61      4.61      4.98      0.01         0.02
  YS02001765YS02001762        4.08      4.08      4.61      0.01         0.01
  YS02001770YS02001767        3.86      3.88      3.92      0.01         0.68
  YS02001774YS02001770        3.61      3.61      4.21      0.01         0.01
  YS02001779YS02001774        1.33      1.33      4.21      0.01         0.01
  YS02001649YS02001757        4.82      4.82      5.23      0.01         0.01
  YS02001767YS02001765        3.92      3.92      4.08      0.01         0.02
  YS02001788YS02001790        0.01      0.01      0.31      0.01         0.01
  YS02001790YS02001791        0.31      0.31      0.39      0.01         0.01
  YS02001791YS02001793        0.39      0.39      0.82      0.01         0.01
  YS02001629YS02163301        3.48      3.48      3.71      0.01         0.01
  YS02001622YS02001625        0.01      0.01      2.93      0.01         0.01
  YS02001625YS02001629        0.01      0.01      2.93      0.01         0.01
  YS02163301YS02001633        3.71      3.71      4.11      0.01         0.01
  YS02163601YS02164001        4.04      4.04      4.75      0.01         0.01
  YS02164001YS02001641        4.04      4.04      4.13      0.01         0.01
  YS02001641YS02001644        4.12      4.13      4.16      0.01         0.29
  YS02001647YS02001649        2.88      2.88      4.82      0.01         0.01
  YS02001633YS02163601        3.97      3.97      4.75      0.01         0.01
  YS02001644YS02001647        2.88      2.88      4.16      0.01         0.01
  YS02001751YS02001754        0.01      0.01      2.01      0.01         0.01
  YS02001754YS02001757        2.89      2.89      5.23      0.01         0.01
  YS02001652YS02001649        2.97      2.97      4.82      0.01         0.01
  YS02001655YS02001652        0.01      0.01      2.68      0.01         0.01
  YS02001793JiankangQianchi        0.70      0.70      3.04      0.01         0.01
  YS02001757CaochengTiaoxuchi        0.01      0.01      5.23      0.01         0.01
  
  
  ***************
  Pumping Summary
  ***************
  
  ---------------------------------------------------------------------------------------------------------
                                                  Min       Avg       Max     Total     Power    % Time Off
                        Percent   Number of      Flow      Flow      Flow    Volume     Usage    Pump Curve
  Pump                 Utilized   Start-Ups       LPS       LPS       LPS  10^6 ltr     Kw-hr    Low   High
  ---------------------------------------------------------------------------------------------------------
  CC-Pump-1               25.53           5      0.00     98.24    199.94     0.720      2.31    0.0   33.3
  CC-Pump-2               59.57           3      0.00    134.76    200.00     2.160      6.39    0.0   20.2
  JK-Pump-1               59.58           8      0.00    124.93    300.00     1.485     23.05    0.0    0.0
  JK-Pump-2               48.92           7      0.00    168.58    300.00     1.594     20.76    0.0    0.0
  XR-Pump-1               59.56           8      0.00     67.09     95.00     1.140      6.84    0.0    0.0
  XR-Pump-2               53.18           9      0.00     52.80     95.00     0.912      5.38    0.0    0.0
  XR-Pump-3               74.43          10      0.00     56.38     95.00     1.197      7.44    0.0    0.0
  XR-Pump-4               65.93           7      0.00     61.67     95.00     1.140      6.77    0.0    0.0
  

  Analysis begun on:  Thu Jan  6 00:19:58 2022
  Analysis ended on:  Thu Jan  6 00:20:01 2022
  Total elapsed time: 00:00:03