
  EPA STORM WATER MANAGEMENT MODEL - VERSION 5.1 (Build 5.3.0.dev0)
  --------------------------------------------------------------

  WARNING 04: minimum elevation drop used for Conduit WS02004404WS02004405
  WARNING 03: negative offset ignored for Link YS02001904YS02001907
  
  *********************************************************
  NOTE: The summary statistics displayed in this report are
  based on results found at every computational time step,  
  not just on results from each reporting time step.
  *********************************************************
  
  ****************
  Analysis Options
  ****************
  Flow Units ............... LPS
  Process Models:
    Rainfall/Runoff ........ YES
    RDII ................... NO
    Snowmelt ............... NO
    Groundwater ............ NO
    Flow Routing ........... YES
    Ponding Allowed ........ NO
    Water Quality .......... NO
  Infiltration Method ...... HORTON
  Flow Routing Method ...... DYNWAVE
  Surcharge Method ......... EXTRAN
  Starting Date ............ 08/28/2015 08:00:00
  Ending Date .............. 08/28/2015 15:50:00
  Antecedent Dry Days ...... 8.0
  Report Time Step ......... 00:01:00
  Wet Time Step ............ 00:01:00
  Dry Time Step ............ 00:01:00
  Routing Time Step ........ 5.00 sec
  Variable Time Step ....... YES
  Maximum Trials ........... 8
  Number of Threads ........ 4
  Head Tolerance ........... 0.001500 m
  
  
  **************************        Volume         Depth
  Runoff Quantity Continuity     hectare-m            mm
  **************************     ---------       -------
  Total Precipitation ......         1.348         2.951
  Evaporation Loss .........         0.000         0.000
  Infiltration Loss ........         0.325         0.712
  Surface Runoff ...........         0.315         0.689
  Final Storage ............         0.708         1.551
  Continuity Error (%) .....        -0.014
  
  
  **************************        Volume        Volume
  Flow Routing Continuity        hectare-m      10^6 ltr
  **************************     ---------     ---------
  Dry Weather Inflow .......         0.616         6.165
  Wet Weather Inflow .......         0.314         3.143
  Groundwater Inflow .......         0.000         0.000
  RDII Inflow ..............         0.000         0.000
  External Inflow ..........         0.102         1.024
  External Outflow .........         0.852         8.521
  Flooding Loss ............         0.108         1.085
  Evaporation Loss .........         0.000         0.000
  Exfiltration Loss ........         0.000         0.000
  Initial Stored Volume ....         0.076         0.761
  Final Stored Volume ......         0.196         1.962
  Continuity Error (%) .....        -4.285
  
  
  *************************
  Highest Continuity Errors
  *************************
  Node HS02004842 (48.81%)
  Node YS02001884 (41.24%)
  Node YS02001774 (26.05%)
  Node JK-storage (-18.25%)
  Node YSB1171 (16.84%)
  
  
  ***************************
  Time-Step Critical Elements
  ***************************
  Link WS02006252WS02006251 (79.09%)
  Link 3 (6.78%)
  Link WS02006280WS02006229 (5.28%)
  Link WS02006238WS02006235 (1.66%)
  Link YS02001793JiankangQianchi (1.25%)
  
  
  ********************************
  Highest Flow Instability Indexes
  ********************************
  Link WS02006113WS02006111 (55)
  Link WS02006111WS02006112 (6)
  Link YS02001754YS02001757 (4)
  Link YS02001751YS02001754 (3)
  Link YS02001767YS02001765 (3)
  
  
  *************************
  Routing Time Step Summary
  *************************
  Minimum Time Step           :     0.50 sec
  Average Time Step           :     1.37 sec
  Maximum Time Step           :     5.00 sec
  Percent in Steady State     :    -0.00
  Average Iterations per Step :     2.01
  Percent Not Converging      :     0.02
  
  
  ***************************
  Subcatchment Runoff Summary
  ***************************
  
  ------------------------------------------------------------------------------------------------------------------------------
                            Total      Total      Total      Total     Imperv       Perv      Total       Total     Peak  Runoff
                           Precip      Runon       Evap      Infil     Runoff     Runoff     Runoff      Runoff   Runoff   Coeff
  Subcatchment                 mm         mm         mm         mm         mm         mm         mm    10^6 ltr      LPS
  ------------------------------------------------------------------------------------------------------------------------------
  sub0                       2.95       0.00       0.00       0.21       1.48       0.00       1.48        0.00     0.33   0.501
  sub1                       2.95       0.00       0.00       0.32       1.38       0.00       1.38        0.01     1.78   0.466
  sub2                       2.95       0.00       0.00       1.09       0.96       0.00       0.96        0.01     1.58   0.325
  sub3                       2.95       0.00       0.00       1.09       0.93       0.00       0.93        0.02     3.24   0.316
  sub4                       2.95       0.00       0.00       0.32       1.27       0.00       1.27        0.03     3.63   0.430
  sub5                       2.95       0.00       0.00       0.21       1.44       0.00       1.44        0.02     3.16   0.487
  sub7                       2.95       0.00       0.00       0.27       1.43       0.00       1.43        0.00     1.11   0.485
  sub8                       2.95       0.00       0.00       0.27       1.42       0.00       1.42        0.01     1.96   0.483
  sub9                       2.95       0.00       0.00       0.27       1.42       0.00       1.42        0.01     1.45   0.482
  sub10                      2.95       0.00       0.00       0.24       1.43       0.00       1.43        0.02     3.15   0.484
  sub11                      2.95       0.00       0.00       0.24       1.44       0.00       1.44        0.02     3.68   0.489
  sub12                      2.95       0.00       0.00       0.38       1.38       0.00       1.38        0.01     3.10   0.467
  sub14                      2.95       0.00       0.00       0.27       1.42       0.00       1.42        0.01     2.84   0.481
  sub15                      2.95       0.00       0.00       0.89       1.09       0.00       1.09        0.02     3.86   0.369
  sub16                      2.95       0.00       0.00       0.97       1.06       0.00       1.06        0.01     2.73   0.359
  sub17                      2.95       0.00       0.00       0.94       1.07       0.00       1.07        0.01     2.21   0.364
  sub22                      2.95       0.00       0.00       1.27       0.89       0.00       0.89        0.06    12.59   0.303
  sub23                      2.95       0.00       0.00       1.09       0.99       0.00       0.99        0.05    10.72   0.336
  sub60                      2.95       0.00       0.00       0.35       0.73       0.00       0.73        0.22    17.11   0.247
  sub61                      2.95       0.00       0.00       0.50       0.83       0.00       0.83        0.26    22.34   0.282
  sub62                      2.95       0.00       0.00       0.24       0.88       0.00       0.88        0.27    22.61   0.297
  sub63                      2.95       0.00       0.00       0.86       0.76       0.00       0.76        0.23    21.07   0.257
  sub64                      2.95       0.00       0.00       0.44       0.69       0.00       0.69        0.21    16.20   0.235
  sub65                      2.95       0.00       0.00       0.38       0.70       0.00       0.70        0.22    16.38   0.237
  sub66                      2.95       0.00       0.00       0.86       0.62       0.00       0.62        0.19    15.06   0.209
  sub67                      2.95       0.00       0.00       0.24       1.02       0.00       1.02        0.32    29.75   0.346
  sub68                      2.95       0.00       0.00       0.41       0.90       0.00       0.90        0.28    24.88   0.305
  sub69                      2.95       0.00       0.00       0.44       1.04       0.00       1.04        0.24    25.12   0.351
  sub70                      2.95       1.06       0.00       1.36       1.08       0.00       1.08        0.25    16.72   0.268
  sub71                      2.95       0.00       0.00       0.24       0.82       0.00       0.82        0.19    15.56   0.277
  sub72                      2.95       0.00       0.00       0.21       0.51       0.00       0.51        0.10     6.79   0.172
  sub73                      2.95       1.05       0.00       1.36       0.99       0.00       0.99        0.23    14.44   0.247
  sub74                      2.95       0.00       0.00       2.21       0.32       0.00       0.32        0.13    14.08   0.108
  
  
  ******************
  Node Depth Summary
  ******************
  
  ---------------------------------------------------------------------------------
                                 Average  Maximum  Maximum  Time of Max    Reported
                                   Depth    Depth      HGL   Occurrence   Max Depth
  Node                 Type       Meters   Meters   Meters  days hr:min      Meters
  ---------------------------------------------------------------------------------
  WS02001211           JUNCTION     0.57     0.75     5.58     0  00:41        0.75
  WS02001212           JUNCTION     0.31     0.44     5.51     0  00:42        0.44
  WS02001213           JUNCTION     0.51     0.65     5.41     0  00:43        0.65
  WS02003069           JUNCTION     0.32     0.42     5.00     0  04:52        0.42
  WS02003072           JUNCTION     0.39     0.49     4.86     0  04:53        0.49
  WS02003073           JUNCTION     0.22     0.29     4.36     0  04:53        0.29
  WS02003060           JUNCTION     0.29     0.37     5.31     0  04:51        0.37
  WS02003066           JUNCTION     0.17     0.23     5.79     0  04:45        0.23
  WS02003059           JUNCTION     0.57     0.69     5.38     0  00:44        0.69
  WS02003067           JUNCTION     0.44     0.58     5.90     0  04:45        0.58
  WS02004401           JUNCTION     0.50     0.66     6.66     0  04:41        0.66
  WS02004402           JUNCTION     0.54     0.69     6.65     0  04:41        0.69
  WS02004403           JUNCTION     0.56     0.71     6.64     0  04:42        0.71
  WS02004404           JUNCTION     0.64     0.79     6.64     0  04:42        0.79
  WS02004406           JUNCTION     0.66     0.80     6.63     0  04:42        0.80
  WS02004409           JUNCTION     0.32     0.47     6.24     0  04:43        0.47
  WS02004410           JUNCTION     0.34     0.49     6.21     0  04:43        0.49
  WS02004411           JUNCTION     0.36     0.51     6.19     0  04:44        0.51
  WS02004412           JUNCTION     0.39     0.53     6.17     0  04:44        0.53
  WS02004413           JUNCTION     0.55     0.70     6.17     0  04:44        0.70
  WS02004405           JUNCTION     0.64     0.79     6.64     0  04:42        0.79
  WS02006109           JUNCTION     0.56     0.73     7.35     0  04:09        0.73
  WS02006110           JUNCTION     0.58     0.74     7.32     0  04:10        0.74
  WS02006111           JUNCTION     0.15     0.22     6.92     0  04:10        0.21
  WS02006112           JUNCTION     0.65     0.82     6.70     0  04:40        0.82
  WS02006113           JUNCTION     0.22     0.33     7.22     0  04:10        0.33
  WS02006115           JUNCTION     0.39     0.54     6.68     0  04:41        0.54
  WS02006116           JUNCTION     0.47     0.63     6.67     0  04:41        0.63
  WS02006230           JUNCTION     0.47     0.68     7.42     0  04:09        0.67
  WS02006231           JUNCTION     0.31     0.47     7.59     0  04:08        0.47
  WS02006232           JUNCTION     0.43     0.61     7.65     0  04:08        0.61
  WS02006234           JUNCTION     0.32     0.52     7.68     0  04:08        0.52
  WS02006235           JUNCTION     0.35     0.55     7.72     0  04:08        0.55
  WS02006238           JUNCTION     0.37     0.58     7.72     0  04:07        0.58
  WS02006240           JUNCTION     0.27     0.46     7.75     0  05:37        0.46
  WS02006242           JUNCTION     0.32     0.55     7.82     0  05:37        0.55
  WS02006243           JUNCTION     0.21     0.44     7.86     0  05:36        0.43
  WS02006245           JUNCTION     0.22     0.45     7.93     0  05:36        0.44
  WS02006247           JUNCTION     0.24     0.48     7.98     0  05:36        0.48
  WS02006248           JUNCTION     0.20     0.44     8.02     0  05:35        0.44
  WS02006249           JUNCTION     0.24     0.49     8.08     0  05:35        0.47
  WS02006239           JUNCTION     0.32     0.53     7.73     0  04:07        0.52
  WS02006251           JUNCTION     0.23     0.49     8.16     0  05:35        0.48
  WS02006252           JUNCTION     0.22     0.51     8.75     0  05:35        0.50
  WS02006253           JUNCTION     0.26     0.52     8.16     0  05:35        0.51
  WS02006256           JUNCTION     0.69     1.19     8.12     0  00:20        1.18
  WS02004138           JUNCTION     0.12     0.19     7.44     0  00:40        0.19
  WS02004407           JUNCTION     0.14     0.22     6.53     0  04:42        0.22
  WS02006228           JUNCTION     0.54     0.72     7.37     0  04:09        0.72
  WS02006229           JUNCTION     0.50     0.69     7.38     0  04:09        0.69
  WS02006280           JUNCTION     0.04     0.08     8.35     0  02:36        0.08
  WS02006284           JUNCTION     0.32     0.39     8.79     0  02:36        0.39
  WS02006287           JUNCTION     0.06     0.11     9.07     0  02:36        0.11
  WSF200               JUNCTION     0.14     0.21     5.44     0  04:44        0.21
  HS02004901           JUNCTION     0.09     0.15     9.97     0  02:35        0.15
  HS02004881           JUNCTION     0.00     0.01     9.04     0  02:34        0.01
  HS02004876           JUNCTION     0.02     0.06     9.09     0  02:35        0.06
  HS02004870           JUNCTION     0.01     0.02     9.30     0  02:33        0.02
  HS02004862           JUNCTION     0.01     0.02     9.40     0  02:36        0.02
  HS02004856           JUNCTION     0.07     0.08     9.51     0  02:34        0.08
  HS02004852           JUNCTION     0.00     0.01     9.52     0  02:36        0.01
  HS02004848           JUNCTION     0.00     0.01     9.61     0  02:30        0.01
  HS02004842           JUNCTION     0.32     0.34     9.61     0  02:31        0.34
  HS02004837           JUNCTION     0.02     0.03     9.61     0  02:30        0.03
  HS02004830           JUNCTION     0.03     0.04     9.51     0  02:31        0.04
  HS02004824           JUNCTION     0.01     0.02     9.42     0  02:35        0.02
  HS02004817           JUNCTION     0.40     0.45     9.30     0  02:36        0.45
  HS02004807           JUNCTION     0.10     0.13     9.30     0  02:36        0.13
  HS02004802           JUNCTION     0.13     0.17     9.30     0  02:36        0.17
  HS02004799           JUNCTION     0.08     0.14     9.35     0  02:34        0.14
  HS02004792           JUNCTION     0.01     0.04     9.56     0  02:33        0.04
  HS02004788           JUNCTION     0.01     0.03     9.93     0  02:35        0.03
  HS02004785           JUNCTION     0.02     0.06     9.96     0  02:36        0.06
  HS02004777           JUNCTION     0.11     0.17     9.97     0  02:35        0.17
  HS02004770           JUNCTION     0.08     0.14     9.97     0  02:35        0.14
  HS02004480           JUNCTION     0.04     0.10     9.34     0  02:35        0.10
  HS02004479           JUNCTION     0.08     0.14     9.34     0  02:34        0.14
  HS02004478           JUNCTION     0.04     0.07     9.29     0  02:36        0.07
  YS02001745           JUNCTION     0.04     0.06     7.57     0  03:01        0.06
  YS02001748           JUNCTION     0.05     0.07     7.14     0  03:01        0.07
  YS02001751           JUNCTION     0.13     0.19     7.06     0  03:13        0.18
  YS02001754           JUNCTION     0.37     0.47     7.08     0  05:27        0.47
  YS02001762           JUNCTION     0.56     0.67     7.07     0  03:14        0.66
  YS02001765           JUNCTION     0.51     0.62     7.07     0  03:14        0.61
  YS02001767           JUNCTION     0.48     0.58     7.07     0  03:13        0.58
  YS02001770           JUNCTION     0.47     0.57     7.07     0  03:14        0.57
  YS02001774           JUNCTION     0.54     0.64     7.07     0  03:14        0.64
  YS02001779           JUNCTION     0.30     0.38     7.07     0  03:14        0.38
  YS02001882           JUNCTION     0.17     0.24     6.95     0  03:03        0.24
  YS02001884           JUNCTION     0.26     0.33     6.95     0  03:03        0.33
  YS02001759           JUNCTION     0.59     0.70     7.06     0  03:14        0.70
  YS02001887           JUNCTION     0.34     0.41     6.95     0  03:02        0.41
  YS02001890           JUNCTION     0.37     0.45     6.95     0  03:03        0.45
  YS02001898           JUNCTION     0.14     0.20     6.94     0  03:03        0.20
  YS02001901           JUNCTION     0.26     0.33     6.94     0  03:04        0.33
  YS02001904           JUNCTION     0.24     0.31     6.94     0  03:04        0.31
  YS02001907           JUNCTION     0.56     0.65     6.94     0  03:03        0.65
  YS02001910           JUNCTION     0.35     0.43     6.94     0  03:03        0.43
  YS02001915           JUNCTION     0.16     0.22     6.94     0  03:04        0.22
  YS02001918           JUNCTION     0.05     0.05     7.12     0  03:06        0.05
  YS02001619           JUNCTION     0.10     0.15     7.08     0  03:09        0.15
  YS02001629           JUNCTION     0.42     0.52     7.07     0  03:08        0.52
  YS02001641           JUNCTION     0.52     0.63     7.06     0  03:12        0.63
  YS02001644           JUNCTION     0.53     0.63     7.06     0  03:11        0.63
  YS02001652           JUNCTION     0.38     0.47     7.06     0  03:12        0.47
  YS02001655           JUNCTION     0.16     0.21     7.06     0  03:12        0.21
  YS02001920           JUNCTION     0.12     0.13     7.14     0  03:05        0.13
  YS02001923           JUNCTION     0.03     0.04     7.30     0  03:04        0.04
  YS02001926           JUNCTION     0.08     0.10     7.54     0  03:03        0.10
  YS02001929           JUNCTION     0.03     0.04     7.74     0  03:01        0.04
  YS02001658           JUNCTION     0.04     0.07     7.21     0  03:01        0.07
  YS02001661           JUNCTION     0.11     0.13     7.54     0  03:01        0.13
  YS02001664           JUNCTION     0.04     0.06     7.98     0  03:01        0.06
  YS02001622           JUNCTION     0.11     0.17     7.07     0  03:09        0.17
  YS02001633           JUNCTION     0.51     0.61     7.07     0  03:10        0.61
  YS02001649           JUNCTION     0.56     0.67     7.06     0  03:14        0.67
  YS02001757           JUNCTION     0.69     0.80     7.06     0  03:13        0.80
  YS02001895           JUNCTION     0.14     0.20     6.95     0  03:03        0.20
  YS02001625           JUNCTION     0.38     0.47     7.07     0  03:09        0.46
  YS02163301           JUNCTION     0.45     0.55     7.07     0  03:10        0.55
  YS02163601           JUNCTION     0.56     0.67     7.07     0  03:09        0.67
  YS02164001           JUNCTION     0.50     0.61     7.06     0  03:09        0.61
  YS02001647           JUNCTION     0.37     0.45     7.06     0  03:15        0.45
  YSB1154              JUNCTION     0.21     0.28     9.34     0  02:35        0.28
  YSB6556              JUNCTION     0.11     0.17     9.34     0  02:34        0.17
  YSB1174              JUNCTION     0.17     0.23     9.34     0  02:35        0.23
  YSB1171              JUNCTION     0.36     0.44     9.34     0  02:34        0.44
  YS02006553           JUNCTION     0.56     0.65     6.94     0  03:04        0.65
  YS02006561           JUNCTION     0.07     0.11     6.77     0  03:04        0.11
  YS02006556           JUNCTION     0.54     0.63     6.94     0  03:04        0.63
  YS02006558           JUNCTION     0.58     0.67     6.94     0  03:04        0.67
  YS02001783           JUNCTION     0.12     0.18     6.33     0  03:04        0.18
  YS02001784           JUNCTION     0.16     0.22     6.29     0  03:05        0.22
  YS02001786           JUNCTION     0.13     0.19     6.22     0  03:05        0.19
  YS02001788           JUNCTION     0.09     0.13     6.11     0  03:05        0.13
  YS02001790           JUNCTION     0.11     0.16     5.81     0  03:06        0.16
  YS02001791           JUNCTION     0.08     0.11     5.58     0  03:19        0.11
  YS02001793           JUNCTION     0.05     0.07     4.90     0  03:06        0.07
  WS02004139           JUNCTION     0.51     0.69     5.60     0  00:42        0.69
  WSC                  OUTFALL      0.22     0.29     0.96     0  04:54        0.29
  3                    OUTFALL      0.01     0.19     6.19     0  00:20        0.18
  4                    OUTFALL      0.00     0.00     7.00     0  00:00        0.00
  5                    OUTFALL      0.00     0.00     5.00     0  00:00        0.00
  JK-storage           STORAGE      0.22     3.00     3.80     0  00:10        3.00
  CC-storage           STORAGE      0.00     0.03     7.03     0  05:22        0.03
  XR-storage           STORAGE      7.20     7.72     5.72     0  03:11        7.72
  
  
  *******************
  Node Inflow Summary
  *******************
  
  -------------------------------------------------------------------------------------------------
                                  Maximum  Maximum                  Lateral       Total        Flow
                                  Lateral    Total  Time of Max      Inflow      Inflow     Balance
                                   Inflow   Inflow   Occurrence      Volume      Volume       Error
  Node                 Type           LPS      LPS  days hr:min    10^6 ltr    10^6 ltr     Percent
  -------------------------------------------------------------------------------------------------
  WS02001211           JUNCTION      7.35   377.45     0  00:40       0.207        4.78       0.468
  WS02001212           JUNCTION      0.00   371.40     0  00:41           0        4.76       0.270
  WS02001213           JUNCTION      0.00   370.99     0  00:42           0        4.74       0.257
  WS02003069           JUNCTION      0.32   529.00     0  04:52     0.00902        8.32       0.156
  WS02003072           JUNCTION      0.00   528.86     0  04:52           0        8.31       0.222
  WS02003073           JUNCTION      1.82   530.56     0  04:53      0.0514        8.34       0.223
  WS02003060           JUNCTION     16.53   528.70     0  04:51       0.466        8.33       0.157
  WS02003066           JUNCTION      0.00   283.46     0  04:45           0        3.15       0.077
  WS02003059           JUNCTION      0.00   367.83     0  00:42           0        4.73       0.517
  WS02003067           JUNCTION      0.00   283.50     0  04:44           0        3.16       0.188
  WS02004401           JUNCTION      0.00   294.38     0  04:41           0        3.32       0.464
  WS02004402           JUNCTION      0.00   293.26     0  04:41           0         3.3       0.454
  WS02004403           JUNCTION      0.00   292.45     0  04:41           0        3.29       0.426
  WS02004404           JUNCTION      0.16   291.97     0  04:41     0.00457        3.28       0.337
  WS02004406           JUNCTION      0.00   291.38     0  04:42           0        3.25       0.829
  WS02004409           JUNCTION      0.00   290.83     0  04:42           0        3.22       0.253
  WS02004410           JUNCTION      0.00   289.03     0  04:43           0        3.21       0.302
  WS02004411           JUNCTION      0.00   287.26     0  04:43           0         3.2       0.328
  WS02004412           JUNCTION      0.00   285.79     0  04:44           0        3.19       0.383
  WS02004413           JUNCTION      0.00   284.46     0  04:44           0        3.18       0.616
  WS02004405           JUNCTION      0.04   291.70     0  04:41     0.00107        3.27       0.506
  WS02006109           JUNCTION      1.23   306.99     0  04:09      0.0347        3.39       0.369
  WS02006110           JUNCTION      0.00   305.96     0  04:09           0        3.38       0.472
  WS02006111           JUNCTION      0.00   307.69     0  04:10           0        3.36       0.086
  WS02006112           JUNCTION      2.21   303.96     0  04:10     0.00921        3.37       0.681
  WS02006113           JUNCTION      0.00   304.70     0  04:10           0        3.36       0.172
  WS02006115           JUNCTION      0.00   297.97     0  04:40           0        3.34       0.373
  WS02006116           JUNCTION      0.00   295.88     0  04:40           0        3.33       0.371
  WS02006230           JUNCTION     10.28   291.72     0  04:08        0.29        2.94       0.268
  WS02006231           JUNCTION      0.00   282.14     0  04:08           0        2.66       0.299
  WS02006232           JUNCTION      0.00   282.99     0  04:08           0        2.67       0.434
  WS02006234           JUNCTION      0.00   284.54     0  04:07           0        2.67       0.081
  WS02006235           JUNCTION      0.00   285.52     0  04:07           0        2.72       0.332
  WS02006238           JUNCTION      0.00   254.90     0  05:37           0        1.65       0.135
  WS02006240           JUNCTION      0.00   265.24     0  05:37           0        1.62       0.318
  WS02006242           JUNCTION      0.00   272.63     0  05:36           0        1.61       0.449
  WS02006243           JUNCTION      0.00   277.46     0  05:36           0         1.6       0.063
  WS02006245           JUNCTION      0.00   281.02     0  05:36           0        1.61       0.572
  WS02006247           JUNCTION      0.00   284.91     0  05:35           0        1.62       0.223
  WS02006248           JUNCTION      0.00   289.08     0  05:35           0        1.61      -0.170
  WS02006249           JUNCTION      0.00   296.72     0  05:35           0        1.62       0.593
  WS02006239           JUNCTION      0.00   258.04     0  05:37           0        1.63       0.065
  WS02006251           JUNCTION      0.08   313.18     0  05:35     0.00217        1.66       0.136
  WS02006252           JUNCTION      0.00   313.11     0  05:35           0        1.57       0.010
  WS02006253           JUNCTION      0.33    21.66     0  04:25      0.0012      0.0844       1.482
  WS02006256           JUNCTION      0.00   599.15     0  00:20           0         1.3       0.171
  WS02004138           JUNCTION      0.00   379.67     0  00:40           0        4.59       0.057
  WS02004407           JUNCTION      0.00   291.00     0  04:42           0        3.22       0.128
  WS02006228           JUNCTION      0.00   306.92     0  04:09           0        3.37       0.313
  WS02006229           JUNCTION      0.00   307.79     0  04:09           0        3.38       0.268
  WS02006280           JUNCTION      0.00    57.13     0  02:36           0       0.444       0.017
  WS02006284           JUNCTION      0.10    57.14     0  02:36      0.0027       0.445       0.268
  WS02006287           JUNCTION      0.00    57.04     0  02:36           0       0.443       0.156
  WSF200               JUNCTION      0.00   283.41     0  04:45           0        3.15       0.060
  HS02004901           JUNCTION      2.73     2.73     0  02:22      0.0111      0.0112      18.514
  HS02004881           JUNCTION      1.11     9.03     0  02:34     0.00482      0.0496       0.165
  HS02004876           JUNCTION      1.78     8.06     0  02:32     0.00915      0.0453       1.129
  HS02004870           JUNCTION      1.96     6.32     0  02:32      0.0091      0.0362       0.287
  HS02004862           JUNCTION      1.78     4.47     0  02:33      0.0146      0.0273       0.599
  HS02004856           JUNCTION      1.45     2.72     0  02:32     0.00684      0.0142      11.270
  HS02004852           JUNCTION      0.00     1.35     0  02:34           0     0.00738       0.587
  HS02004848           JUNCTION      3.24     3.24     0  02:34       0.021       0.021       0.186
  HS02004842           JUNCTION      0.00     4.48     0  00:03           0      0.0266      95.361
  HS02004837           JUNCTION      9.50    11.36     0  02:29       0.195       0.208       0.390
  HS02004830           JUNCTION      0.15    11.51     0  02:30     0.00423       0.199       0.622
  HS02004824           JUNCTION      3.68    15.16     0  02:34      0.0279       0.225       0.239
  HS02004817           JUNCTION      0.60    15.76     0  02:35      0.0169       0.242       7.395
  HS02004807           JUNCTION      3.68    19.15     0  02:34      0.0168       0.242       1.775
  HS02004802           JUNCTION      0.00    19.13     0  02:36           0       0.238       1.739
  HS02004799           JUNCTION      2.84    32.36     0  02:33      0.0135       0.196       1.152
  HS02004792           JUNCTION     12.87    29.63     0  02:32      0.0644       0.183       0.230
  HS02004788           JUNCTION      5.53    17.60     0  02:35      0.0658        0.12       0.330
  HS02004785           JUNCTION      0.15    12.33     0  02:34     0.00423      0.0558       0.850
  HS02004777           JUNCTION      0.03    12.44     0  02:31    0.000846       0.056      10.153
  HS02004770           JUNCTION     10.72    12.98     0  02:25      0.0472      0.0567       5.780
  HS02004480           JUNCTION      0.00    37.97     0  02:34           0       0.222       0.274
  HS02004479           JUNCTION      0.00     5.69     0  02:36           0      0.0381       1.944
  HS02004478           JUNCTION      0.00    57.04     0  02:35           0       0.444       0.161
  YS02001745           JUNCTION     17.12    17.12     0  03:01       0.221       0.221       0.103
  YS02001748           JUNCTION      0.04    17.15     0  03:01     0.00127       0.222       0.053
  YS02001751           JUNCTION      0.01    31.03     0  04:53     0.00031       0.278       0.612
  YS02001754           JUNCTION      0.26   110.98     0  04:54     0.00733       0.519       1.745
  YS02001762           JUNCTION      0.00    29.90     0  03:15           0       0.298       4.586
  YS02001765           JUNCTION      0.00    41.94     0  04:57           0       0.289       4.953
  YS02001767           JUNCTION      0.54    36.98     0  05:05      0.0151       0.293       6.755
  YS02001770           JUNCTION     22.76    25.36     0  02:58       0.273       0.284       5.823
  YS02001774           JUNCTION      0.00    12.58     0  02:52           0      0.0541      35.219
  YS02001779           JUNCTION      0.01     7.21     0  04:41    0.000141      0.0295      19.680
  YS02001882           JUNCTION      0.00     1.23     0  02:12           0     0.00218     116.842
  YS02001884           JUNCTION      0.00     3.87     0  02:11           0     0.00913      70.170
  YS02001759           JUNCTION     22.38    54.62     0  04:33       0.257        0.53       3.002
  YS02001887           JUNCTION     30.20    30.20     0  03:01       0.327       0.331       1.834
  YS02001890           JUNCTION      0.00    29.93     0  03:01           0       0.317       2.130
  YS02001898           JUNCTION      0.00    29.72     0  03:02           0       0.308       0.473
  YS02001901           JUNCTION      0.00    29.72     0  03:02           0       0.308       1.438
  YS02001904           JUNCTION      0.00    29.68     0  03:03           0       0.307       1.347
  YS02001907           JUNCTION      0.00    54.66     0  03:04           0       0.671       3.098
  YS02001910           JUNCTION      0.00    25.08     0  03:01           0       0.374       2.383
  YS02001915           JUNCTION     15.58    25.14     0  03:01       0.194       0.377       0.850
  YS02001918           JUNCTION      0.00     9.70     0  03:05           0       0.184       0.321
  YS02001619           JUNCTION     15.06    15.06     0  03:01       0.189       0.189       0.225
  YS02001629           JUNCTION      0.00    20.51     0  03:01           0       0.176       3.091
  YS02001641           JUNCTION      0.00    42.79     0  03:11           0       0.362       3.488
  YS02001644           JUNCTION     16.24    57.34     0  03:01       0.212       0.555       2.741
  YS02001652           JUNCTION      0.00    32.18     0  05:06           0       0.258       3.362
  YS02001655           JUNCTION      0.15    21.21     0  03:01     0.00434       0.235       1.192
  YS02001920           JUNCTION      2.87     9.71     0  03:04      0.0809       0.186       0.761
  YS02001923           JUNCTION      0.04     6.84     0  03:03     0.00106       0.105       0.142
  YS02001926           JUNCTION      0.05     6.83     0  03:01     0.00147       0.105       1.063
  YS02001929           JUNCTION      6.79     6.79     0  03:01       0.104       0.104       0.129
  YS02001658           JUNCTION      0.00    21.06     0  03:01           0       0.229       0.070
  YS02001661           JUNCTION      0.00    21.07     0  03:01           0        0.23       0.273
  YS02001664           JUNCTION     21.07    21.07     0  03:01        0.23        0.23       0.048
  YS02001622           JUNCTION      0.00    16.69     0  03:02           0       0.189       1.118
  YS02001633           JUNCTION     16.58    39.21     0  03:02       0.221       0.384       4.784
  YS02001649           JUNCTION      0.00    80.13     0  03:12           0       0.765       3.051
  YS02001757           JUNCTION      0.00   198.20     0  04:50           0        1.61       4.366
  YS02001895           JUNCTION      0.00    29.79     0  03:01           0        0.31       0.791
  YS02001625           JUNCTION      0.00    20.28     0  03:01           0       0.187       7.716
  YS02163301           JUNCTION      0.00    23.20     0  03:02           0       0.177       7.016
  YS02163601           JUNCTION      0.11    42.31     0  03:11      0.0031       0.367       5.268
  YS02164001           JUNCTION      0.00    42.73     0  03:02           0       0.358       3.221
  YS02001647           JUNCTION      0.00    60.85     0  03:01           0       0.529       2.170
  YSB1154              JUNCTION      3.16     3.16     0  02:28      0.0163      0.0178       8.851
  YSB6556              JUNCTION      0.00     3.11     0  02:31           0      0.0188       7.051
  YSB1174              JUNCTION      3.10     3.10     0  02:22       0.012      0.0131      10.885
  YSB1171              JUNCTION      0.00     5.76     0  02:33           0      0.0375      20.251
  YS02006553           JUNCTION      0.00    54.72     0  03:05           0       0.659       2.036
  YS02006561           JUNCTION      0.00    79.78     0  03:04           0       0.917       0.042
  YS02006556           JUNCTION      0.00    54.79     0  03:06           0        0.66       1.443
  YS02006558           JUNCTION     25.76    79.79     0  03:04       0.301       0.941       0.429
  YS02001783           JUNCTION      0.00    79.77     0  03:04           0       0.917       0.097
  YS02001784           JUNCTION      1.06    80.83     0  03:04      0.0299       0.946       0.165
  YS02001786           JUNCTION      0.06    80.87     0  03:05     0.00159       0.946       0.166
  YS02001788           JUNCTION      0.07    80.94     0  03:05       0.002       0.947       0.088
  YS02001790           JUNCTION      0.15    81.09     0  03:05     0.00437        0.95       0.116
  YS02001791           JUNCTION      0.00    81.09     0  03:06           0       0.949       0.054
  YS02001793           JUNCTION      0.00    81.09     0  03:06           0       0.949       0.028
  WS02004139           JUNCTION      0.32   379.68     0  00:40     0.00905         4.6       0.537
  WSC                  OUTFALL       0.00   530.25     0  04:54           0        8.32       0.000
  3                    OUTFALL       0.00   444.59     0  00:20           0         0.2       0.000
  4                    OUTFALL       0.00     0.00     0  00:00           0           0       0.000 ltr
  5                    OUTFALL       0.00     0.00     0  00:00           0           0       0.000 ltr
  JK-storage           STORAGE       0.00    81.09     0  03:06           0         1.1     -15.434
  CC-storage           STORAGE       0.00   125.78     0  03:14           0        1.31     -16.815
  XR-storage           STORAGE     228.30   228.30     0  03:01           6         6.6      -0.003
  
  
  **********************
  Node Surcharge Summary
  **********************
  
  Surcharging occurs when water rises above the top of the highest conduit.
  ---------------------------------------------------------------------
                                               Max. Height   Min. Depth
                                   Hours       Above Crown    Below Rim
  Node                 Type      Surcharged         Meters       Meters
  ---------------------------------------------------------------------
  WS02006252           JUNCTION        0.06          0.108        0.992
  
  
  *********************
  Node Flooding Summary
  *********************
  
  Flooding refers to all water that overflows a node, whether it ponds or not.
  --------------------------------------------------------------------------
                                                             Total   Maximum
                                 Maximum   Time of Max       Flood    Ponded
                        Hours       Rate    Occurrence      Volume     Depth
  Node                 Flooded       LPS   days hr:min    10^6 ltr    Meters
  --------------------------------------------------------------------------
  XR-storage              3.20    212.59      0  06:20       1.085     0.000
  
  
  **********************
  Storage Volume Summary
  **********************
  
  --------------------------------------------------------------------------------------------------
                         Average     Avg  Evap Exfil       Maximum     Max    Time of Max    Maximum
                          Volume    Pcnt  Pcnt  Pcnt        Volume    Pcnt     Occurrence    Outflow
  Storage Unit           1000 m3    Full  Loss  Loss       1000 m3    Full    days hr:min        LPS
  --------------------------------------------------------------------------------------------------
  JK-storage               0.011       4     0     0         0.151      52       0  00:10     599.15
  CC-storage               0.009       0     0     0         0.087       1       0  05:22     313.11
  XR-storage               0.864      93     0     0         0.926     100       0  03:11     379.67
  
  
  ***********************
  Outfall Loading Summary
  ***********************
  
  -----------------------------------------------------------
                         Flow       Avg       Max       Total
                         Freq      Flow      Flow      Volume
  Outfall Node           Pcnt       LPS       LPS    10^6 ltr
  -----------------------------------------------------------
  WSC                  100.00    322.71    530.25       8.320
  3                     13.28    107.85    444.59       0.200
  4                      0.00      0.00      0.00       0.000
  5                      0.00      0.00      0.00       0.000
  -----------------------------------------------------------
  System                28.32    430.56    651.34       8.521
  
  
  ********************
  Link Flow Summary
  ********************
  
  -----------------------------------------------------------------------------
                                 Maximum  Time of Max   Maximum    Max/    Max/
                                  |Flow|   Occurrence   |Veloc|    Full    Full
  Link                 Type          LPS  days hr:min     m/sec    Flow   Depth
  -----------------------------------------------------------------------------
  WS02003066WSF200     CONDUIT    283.41     0  04:45      2.40    0.05    0.16
  WS02006287WS02006284 CONDUIT     57.04     0  02:36      1.01    0.03    0.12
  WS02006284WS02006280 CONDUIT     57.13     0  02:36      1.27    0.02    0.11
  WS02006280WS02006229 CONDUIT     57.13     0  02:36      2.03    0.01    0.08
  WS02006229WS02006228 CONDUIT    306.92     0  04:09      0.67    1.02    0.86
  WS02006256WS02006235 CONDUIT    158.12     0  00:13      2.30    1.67    1.00
  WS02006253WS02006251 CONDUIT     70.74     0  05:36      0.34    0.21    0.71
  WS02006252WS02006251 CONDUIT    313.10     0  05:35      6.81    1.15    0.97
  WS02006251WS02006249 CONDUIT    296.72     0  05:35      1.04    0.86    0.70
  WS02006249WS02006248 CONDUIT    289.08     0  05:35      1.11    1.58    0.64
  WS02006248WS02006247 CONDUIT    284.91     0  05:35      1.08    0.62    0.65
  WS02006247WS02006245 CONDUIT    281.02     0  05:36      1.05    2.23    0.66
  WS02006245WS02006243 CONDUIT    277.46     0  05:36      1.11    0.82    0.62
  WS02006243WS02006242 CONDUIT    272.63     0  05:36      0.98    0.58    0.68
  WS02006242WS02006240 CONDUIT    265.24     0  05:37      0.91    1.05    0.71
  WS02006240WS02006239 CONDUIT    258.04     0  05:37      0.97    0.81    0.67
  WS02006239WS02006238 CONDUIT    254.90     0  05:37      0.86    0.82    0.77
  WS02006238WS02006235 CONDUIT    250.56     0  05:37      0.91    0.56    0.81
  WS02006235WS02006234 CONDUIT    284.54     0  04:07      0.96    3.00    0.75
  WS02006234WS02006232 CONDUIT    282.99     0  04:08      1.02    0.57    0.81
  WS02006232WS02006231 CONDUIT    282.14     0  04:08      0.90    0.59    0.76
  WS02006231WS02006230 CONDUIT    281.44     0  04:08      1.25    4.27    0.57
  WS02006230WS02006229 CONDUIT    290.80     0  04:09      0.81    6.47    0.94
  WS02006228WS02006109 CONDUIT    305.76     0  04:09      0.64    1.34    0.90
  WS02006116WS02004401 CONDUIT    294.38     0  04:41      0.73    0.41    0.64
  WS02006115WS02006116 CONDUIT    295.88     0  04:40      0.79    0.38    0.55
  WS02006113WS02006111 CONDUIT    307.69     0  04:10      2.03    0.37    0.34
  WS02006112WS02006115 CONDUIT    297.97     0  04:40      0.57    0.18    0.68
  WS02006111WS02006112 CONDUIT    303.82     0  04:10      1.31    0.14    0.63
  WS02006110WS02006113 CONDUIT    304.70     0  04:10      0.85    0.28    0.67
  WS02006109WS02006110 CONDUIT    305.96     0  04:09      0.67    0.59    0.85
  WS02004411WS02004412 CONDUIT    285.79     0  04:44      0.69    0.41    0.52
  WS02004401WS02004402 CONDUIT    293.26     0  04:41      0.77    0.35    0.67
  WS02004413WS02003067 CONDUIT    283.50     0  04:44      0.79    0.12    0.47
  WS02004412WS02004413 CONDUIT    284.46     0  04:44      0.56    0.19    0.62
  WS02004410WS02004411 CONDUIT    287.26     0  04:43      0.73    0.39    0.50
  WS02004409WS02004410 CONDUIT    289.03     0  04:43      0.78    0.37    0.48
  WS02004407WS02004409 CONDUIT    290.83     0  04:42      1.24    0.10    0.34
  WS02004406WS02004407 CONDUIT    291.00     0  04:42      0.72    0.13    0.51
  WS02004405WS02004406 CONDUIT    291.38     0  04:42      0.62    0.57    0.80
  WS02004404WS02004405 CONDUIT    291.66     0  04:41      0.85    2.86    0.79
  WS02004403WS02004404 CONDUIT    291.81     0  04:41      0.74    0.21    0.75
  WS02004402WS02004403 CONDUIT    292.45     0  04:41      0.75    0.42    0.70
  WS02004139WS02001211 CONDUIT    370.10     0  00:40      0.69    0.47    0.56
  WS02004138WS02004139 CONDUIT    379.36     0  00:40      2.95    0.08    0.41
  WS02003067WS02003066 CONDUIT    283.46     0  04:45      0.84    0.09    0.34
  WS02001213WS02003059 CONDUIT    367.83     0  00:42      0.67    0.61    0.66
  WS02001212WS02001213 CONDUIT    370.99     0  00:42      1.30    0.57    0.39
  WS02001211WS02001212 CONDUIT    371.40     0  00:41      0.76    0.28    0.59
  WS02003072WS02003073 CONDUIT    528.74     0  04:53      1.41    1.14    0.37
  WS02003069WS02003072 CONDUIT    528.86     0  04:52      1.35    0.25    0.38
  WS02003060WS02003069 CONDUIT    528.68     0  04:52      1.62    0.21    0.33
  WS02003059WS02003060 CONDUIT    365.92     0  00:44      0.92    0.24    0.53
  HS02004901HS02004770 CONDUIT      2.42     0  02:30      0.02    0.01    0.20
  HS02004876HS02004881 CONDUIT      8.02     0  02:35      0.24    0.09    0.05
  HS02004870HS02004876 CONDUIT      6.31     0  02:33      0.17    0.00    0.05
  HS02004842HS02004848 CONDUIT      1.93     0  02:41      0.01    0.00    0.25
  HS02004837HS02004842 CONDUIT      4.48     0  00:03      0.42    0.00    0.26
  HS02004830HS02004837 CONDUIT     11.36     0  02:30      0.32    0.01    0.05
  HS02004824HS02004830 CONDUIT     11.51     0  02:32      0.37    0.02    0.04
  HS02004817HS02004824 CONDUIT     15.16     0  02:35      0.17    0.01    0.34
  HS02004770HS02004777 CONDUIT     12.41     0  02:31      0.08    0.02    0.22
  HS02004799HS02004480 CONDUIT     32.30     0  02:33      0.28    0.04    0.17
  HS02004792HS02004799 CONDUIT     29.62     0  02:33      0.33    0.02    0.13
  HS02004788HS02004792 CONDUIT     17.59     0  02:35      0.50    0.01    0.05
  HS02004785HS02004788 CONDUIT     12.27     0  02:36      0.26    0.09    0.07
  HS02004777HS02004785 CONDUIT     12.18     0  02:34      0.10    0.01    0.17
  HS02004480HS02004478 CONDUIT     37.94     0  02:35      0.53    0.16    0.10
  HS02004479HS02004480 CONDUIT      5.73     0  02:37      0.15    0.01    0.17
  HS02004862HS02004870 CONDUIT      4.46     0  02:35      0.26    0.00    0.02
  HS02004848HS02004852 CONDUIT      1.35     0  02:34      0.15    0.00    0.01
  HS02004856HS02004862 CONDUIT      2.71     0  02:34      0.17    0.00    0.02
  HS02004852HS02004856 CONDUIT      1.34     0  02:36      0.03    0.00    0.07
  HS02004802HS02004478 CONDUIT     19.16     0  02:38      0.16    0.02    0.17
  HS02004478WS02006287 CONDUIT     57.04     0  02:36      0.72    0.02    0.09
  HS02004817HS02004807 CONDUIT     15.79     0  02:39      0.05    0.01    0.42
  HS02004807HS02004802 CONDUIT     19.13     0  02:36      0.19    0.04    0.21
  YS02001759YS02001757 CONDUIT     50.75     0  03:06      0.12    0.04    0.75
  YS02001762YS02001759 CONDUIT     42.39     0  05:36      0.17    0.05    0.68
  YS02001765YS02001762 CONDUIT     29.90     0  03:15      0.22    0.03    0.64
  YS02001770YS02001767 CONDUIT     26.82     0  03:06      0.25    0.11    0.57
  YS02001774YS02001770 CONDUIT     12.58     0  02:52      0.12    0.01    0.59
  YS02001779YS02001774 CONDUIT      7.40     0  04:49      0.03    0.00    0.51
  YS02001649YS02001757 CONDUIT     78.90     0  03:12      0.13    0.05    0.74
  YS02001767YS02001765 CONDUIT     41.94     0  04:57      0.25    0.05    0.60
  YS02006561YS02001783 CONDUIT     79.77     0  03:04      1.25    0.04    0.18
  YS02001783YS02001784 CONDUIT     79.77     0  03:04      0.80    0.11    0.25
  YS02001784YS02001785 CONDUIT     80.82     0  03:05      0.80    0.19    0.26
  YS02001788YS02001790 CONDUIT     80.94     0  03:05      1.28    0.06    0.18
  YS02001790YS02001791 CONDUIT     81.09     0  03:06      1.46    0.09    0.17
  YS02001791YS02001793 CONDUIT     81.09     0  03:06      2.85    0.03    0.11
  YS02001910YS02001907 CONDUIT     25.06     0  03:05      0.49    0.01    0.54
  YS02001786YS02001788 CONDUIT     80.87     0  03:05      1.13    0.16    0.20
  YS02001915YS02001910 CONDUIT     25.08     0  03:01      0.44    0.01    0.33
  YS02001918YS02001915 CONDUIT      9.70     0  03:06      0.44    0.01    0.14
  YS02001923YS02001920 CONDUIT      6.84     0  03:04      0.20    0.00    0.09
  YS02001926YS02001923 CONDUIT      6.80     0  03:03      0.27    0.01    0.07
  YS02001929YS02001926 CONDUIT      6.78     0  03:01      0.28    0.00    0.07
  YS02001920YS02001918 CONDUIT      9.70     0  03:05      0.26    0.01    0.09
  YS02001629YS02163301 CONDUIT     23.20     0  03:02      0.06    0.03    0.53
  YS02001619YS02001622 CONDUIT     16.69     0  03:02      0.43    0.02    0.16
  YS02001622YS02001625 CONDUIT     20.28     0  03:01      0.14    0.01    0.32
  YS02001625YS02001629 CONDUIT     20.51     0  03:01      0.11    0.01    0.30
  YS02163301YS02001633 CONDUIT     22.75     0  03:02      0.06    0.02    0.58
  YS02163601YS02164001 CONDUIT     42.73     0  03:02      0.08    0.04    0.64
  YS02164001YS02001641 CONDUIT     42.79     0  03:11      0.09    0.06    0.62
  YS02001641YS02001644 CONDUIT     41.14     0  03:01      0.09    0.13    0.63
  YS02001647YS02001649 CONDUIT     58.39     0  03:12      0.13    0.03    0.56
  YS02006553YS02006556 CONDUIT     54.79     0  03:06      0.18    0.05    0.62
  YS02006556YS02006558 CONDUIT     54.84     0  03:06      0.10    0.04    0.65
  YSB6556YSB1171       CONDUIT      3.11     0  02:37      0.03    0.00    0.44
  YS02001907YS02006553 CONDUIT     54.72     0  03:05      0.09    0.06    0.71
  YS02006558YS02006561 CONDUIT     79.78     0  03:04      1.58    0.18    0.23
  YS02001633YS02163601 CONDUIT     42.20     0  03:11      0.08    0.04    0.63
  YS02001644YS02001647 CONDUIT     60.85     0  03:01      0.15    0.04    0.54
  YS02001745YS02001748 CONDUIT     17.11     0  03:01      0.93    0.01    0.06
  YS02001748YS02001751 CONDUIT     17.15     0  03:01      0.77    0.01    0.12
  YS02001751YS02001754 CONDUIT     42.00     0  04:45      0.72    0.02    0.30
  YS02001754YS02001757 CONDUIT     91.19     0  04:53      0.33    0.04    0.63
  YS02001882YS02001884 CONDUIT      1.23     0  02:12      0.05    0.00    0.26
  YS02001884YS02001887 CONDUIT      3.87     0  02:11      0.04    0.01    0.35
  YS02001890YS02001895 CONDUIT     29.79     0  03:01      0.14    0.01    0.32
  YS02001895YS02001898 CONDUIT     29.72     0  03:02      0.34    0.05    0.19
  YS02001898YS02001901 CONDUIT     29.72     0  03:02      0.18    0.02    0.27
  YS02001901YS02001904 CONDUIT     29.68     0  03:03      0.18    0.05    0.32
  YS02001904YS02001907 CONDUIT     29.68     0  03:04      0.08    0.01    0.48
  YS02001887YS02001890 CONDUIT     29.93     0  03:01      0.10    0.05    0.40
  YS02001652YS02001649 CONDUIT     32.13     0  04:41      0.21    0.02    0.57
  YS02001655YS02001652 CONDUIT     23.61     0  03:01      0.77    0.01    0.32
  YS02001658YS02001655 CONDUIT     21.06     0  03:01      0.87    0.01    0.14
  YS02001661YS02001658 CONDUIT     21.06     0  03:01      0.96    0.01    0.07
  YS02001664YS02001661 CONDUIT     21.07     0  03:01      0.54    0.01    0.10
  YSB1154YSB6556       CONDUIT      3.11     0  02:31      0.19    0.01    0.33
  YSB1174YSB1171       CONDUIT      2.91     0  02:22      0.02    0.00    0.44
  YSB1171HS02004479    CONDUIT      5.69     0  02:36      0.54    0.00    0.33
  HS02004881HS02006253 CONDUIT      9.03     0  02:34      0.94    0.00    0.13
  YS02001793JiankangQianchi CONDUIT     81.09     0  03:06      8.82    0.01    0.52
  YS02001757CaochengTiaoxuchi CONDUIT    125.78     0  03:14      0.43    0.06    0.41
  WSF200WS02003060     CONDUIT    284.12     0  04:45      1.43    0.06    0.24
  1                    CONDUIT    530.25     0  04:54      2.79    0.18    0.29
  2                    CONDUIT      0.00     0  00:00      0.00    0.00    0.00
  3                    CONDUIT    444.59     0  00:20      9.54    0.71    0.63
  4                    CONDUIT      0.00     0  00:00      0.00    0.00    0.00
  CC-Pump-1            PUMP       200.00     0  03:10              1.00
  CC-Pump-2            PUMP       200.00     0  05:30              1.00
  JK-Pump-1            PUMP       299.57     0  00:20              1.00
  JK-Pump-2            PUMP       299.57     0  00:20              1.00
  XR-Pump-1            PUMP        95.00     0  00:40              1.00
  XR-Pump-2            PUMP        95.00     0  00:40              1.00
  XR-Pump-3            PUMP        95.00     0  00:00              1.00
  XR-Pump-4            PUMP        95.00     0  00:00              1.00
  
  
  ***************************
  Flow Classification Summary
  ***************************
  
  -------------------------------------------------------------------------------------
                      Adjusted    ---------- Fraction of Time in Flow Class ---------- 
                       /Actual         Up    Down  Sub   Sup   Up    Down  Norm  Inlet 
  Conduit               Length    Dry  Dry   Dry   Crit  Crit  Crit  Crit  Ltd   Ctrl  
  -------------------------------------------------------------------------------------
  WS02003066WSF200        1.00   0.08  0.02  0.00  0.00  0.91  0.00  0.00  0.75  0.00
  WS02006287WS02006284    1.00   0.06  0.02  0.00  0.80  0.12  0.00  0.00  0.81  0.00
  WS02006284WS02006280    1.00   0.07  0.00  0.00  0.00  0.00  0.00  0.93  0.00  0.00
  WS02006280WS02006229    1.00   0.07  0.00  0.00  0.00  0.00  0.00  0.93  0.00  0.00
  WS02006229WS02006228    1.00   0.00  0.00  0.00  1.00  0.00  0.00  0.00  0.00  0.00
  WS02006256WS02006235    1.00   0.01  0.00  0.00  0.99  0.00  0.00  0.00  0.00  0.00
  WS02006253WS02006251    1.00   0.04  0.02  0.00  0.94  0.00  0.00  0.00  0.00  0.00
  WS02006252WS02006251    1.00   0.16  0.00  0.00  0.00  0.00  0.84  0.00  0.00  0.00
  WS02006251WS02006249    1.00   0.00  0.00  0.00  1.00  0.00  0.00  0.00  0.44  0.00
  WS02006249WS02006248    1.00   0.00  0.01  0.00  0.75  0.00  0.24  0.00  0.00  0.00
  WS02006248WS02006247    1.00   0.01  0.00  0.00  0.96  0.00  0.00  0.03  0.35  0.00
  WS02006247WS02006245    1.00   0.01  0.00  0.00  0.95  0.00  0.00  0.05  0.00  0.00
  WS02006245WS02006243    1.00   0.01  0.00  0.00  0.87  0.00  0.00  0.11  0.03  0.00
  WS02006243WS02006242    1.00   0.01  0.01  0.00  0.98  0.00  0.00  0.00  0.48  0.00
  WS02006242WS02006240    1.00   0.01  0.00  0.00  0.98  0.00  0.01  0.00  0.00  0.00
  WS02006240WS02006239    1.00   0.01  0.00  0.00  0.89  0.00  0.00  0.10  0.02  0.00
  WS02006239WS02006238    1.00   0.01  0.00  0.00  0.99  0.00  0.00  0.00  0.02  0.00
  WS02006238WS02006235    1.00   0.01  0.00  0.00  0.99  0.00  0.00  0.00  0.00  0.00
  WS02006235WS02006234    1.00   0.01  0.00  0.00  0.91  0.00  0.09  0.00  0.00  0.00
  WS02006234WS02006232    1.00   0.01  0.00  0.00  0.99  0.00  0.00  0.00  0.08  0.00
  WS02006232WS02006231    1.00   0.01  0.00  0.00  0.99  0.00  0.01  0.00  0.00  0.00
  WS02006231WS02006230    1.00   0.01  0.00  0.00  0.00  0.00  0.99  0.00  0.00  0.00
  WS02006230WS02006229    1.00   0.00  0.00  0.00  0.98  0.00  0.00  0.02  0.00  0.00
  WS02006228WS02006109    1.00   0.00  0.00  0.00  1.00  0.00  0.00  0.00  0.00  0.00
  WS02006116WS02004401    1.00   0.04  0.00  0.00  0.96  0.00  0.00  0.00  0.00  0.00
  WS02006115WS02006116    1.00   0.04  0.00  0.00  0.95  0.00  0.00  0.01  0.00  0.00
  WS02006113WS02006111    1.00   0.03  0.00  0.00  0.00  0.97  0.00  0.00  0.16  0.00
  WS02006112WS02006115    1.00   0.03  0.01  0.00  0.96  0.00  0.00  0.00  0.00  0.00
  WS02006111WS02006112    1.00   0.03  0.00  0.00  0.96  0.00  0.00  0.01  0.96  0.00
  WS02006110WS02006113    1.00   0.00  0.02  0.00  0.97  0.00  0.00  0.00  0.00  0.00
  WS02006109WS02006110    1.00   0.00  0.00  0.00  0.99  0.00  0.00  0.00  0.00  0.00
  WS02004411WS02004412    1.00   0.06  0.00  0.00  0.94  0.00  0.00  0.00  0.00  0.00
  WS02004401WS02004402    1.00   0.04  0.00  0.00  0.96  0.00  0.00  0.00  0.00  0.00
  WS02004413WS02003067    1.00   0.06  0.02  0.00  0.00  0.00  0.91  0.00  0.00  0.00
  WS02004412WS02004413    1.00   0.06  0.00  0.00  0.94  0.00  0.00  0.00  0.03  0.00
  WS02004410WS02004411    1.00   0.06  0.00  0.00  0.94  0.00  0.00  0.00  0.03  0.00
  WS02004409WS02004410    1.00   0.06  0.00  0.00  0.94  0.00  0.00  0.00  0.04  0.00
  WS02004407WS02004409    1.00   0.06  0.00  0.00  0.94  0.00  0.00  0.00  0.87  0.00
  WS02004406WS02004407    1.00   0.00  0.06  0.00  0.94  0.00  0.00  0.00  0.00  0.00
  WS02004405WS02004406    1.00   0.00  0.00  0.00  1.00  0.00  0.00  0.00  0.03  0.00
  WS02004404WS02004405    1.00   0.00  0.00  0.00  1.00  0.00  0.00  0.00  0.00  0.00
  WS02004403WS02004404    1.00   0.00  0.04  0.00  0.96  0.00  0.00  0.00  0.01  0.00
  WS02004402WS02004403    1.00   0.04  0.00  0.00  0.96  0.00  0.00  0.00  0.00  0.00
  WS02004139WS02001211    1.00   0.00  0.00  0.00  1.00  0.00  0.00  0.00  0.00  0.00
  WS02004138WS02004139    1.00   0.00  0.00  0.00  1.00  0.00  0.00  0.00  1.00  0.00
  WS02003067WS02003066    1.00   0.09  0.01  0.00  0.91  0.00  0.00  0.00  0.00  0.00
  WS02001213WS02003059    1.00   0.00  0.00  0.00  1.00  0.00  0.00  0.00  0.00  0.00
  WS02001212WS02001213    1.00   0.00  0.00  0.00  0.15  0.00  0.85  0.00  0.00  0.00
  WS02001211WS02001212    1.00   0.00  0.00  0.00  1.00  0.00  0.00  0.00  0.00  0.00
  WS02003072WS02003073    1.00   0.00  0.00  0.00  0.00  0.00  0.00  1.00  0.00  0.00
  WS02003069WS02003072    1.00   0.00  0.00  0.00  1.00  0.00  0.00  0.00  0.73  0.00
  WS02003060WS02003069    1.00   0.00  0.00  0.00  0.99  0.01  0.00  0.00  0.41  0.00
  WS02003059WS02003060    1.00   0.00  0.00  0.00  1.00  0.00  0.00  0.00  0.01  0.00
  HS02004901HS02004770    1.00   0.06  0.00  0.00  0.93  0.00  0.00  0.00  0.03  0.00
  HS02004876HS02004881    1.00   0.01  0.00  0.00  0.99  0.00  0.00  0.00  0.00  0.00
  HS02004870HS02004876    1.00   0.00  0.00  0.00  0.99  0.01  0.00  0.00  0.95  0.00
  HS02004842HS02004848    1.00   0.00  0.07  0.00  0.93  0.00  0.00  0.00  0.74  0.00
  HS02004837HS02004842    1.00   0.00  0.00  0.00  1.00  0.00  0.00  0.00  0.11  0.00
  HS02004830HS02004837    1.00   0.00  0.00  0.00  1.00  0.00  0.00  0.00  0.99  0.00
  HS02004824HS02004830    1.00   0.00  0.00  0.00  1.00  0.00  0.00  0.00  0.00  0.00
  HS02004817HS02004824    1.00   0.00  0.00  0.00  1.00  0.00  0.00  0.00  1.00  0.00
  HS02004770HS02004777    1.00   0.00  0.07  0.00  0.93  0.00  0.00  0.00  0.08  0.00
  HS02004799HS02004480    1.00   0.00  0.02  0.00  0.91  0.00  0.06  0.00  0.00  0.00
  HS02004792HS02004799    1.00   0.00  0.00  0.00  1.00  0.00  0.00  0.00  0.98  0.00
  HS02004788HS02004792    1.00   0.00  0.00  0.00  1.00  0.00  0.00  0.00  0.98  0.00
  HS02004785HS02004788    1.00   0.00  0.00  0.00  1.00  0.00  0.00  0.00  0.00  0.00
  HS02004777HS02004785    1.00   0.00  0.00  0.00  1.00  0.00  0.00  0.00  0.23  0.00
  HS02004480HS02004478    1.00   0.07  0.00  0.00  0.80  0.00  0.00  0.13  0.00  0.00
  HS02004479HS02004480    1.00   0.03  0.00  0.00  0.97  0.00  0.00  0.00  0.16  0.00
  HS02004862HS02004870    1.00   0.00  0.00  0.00  1.00  0.00  0.00  0.00  0.06  0.00
  HS02004848HS02004852    1.00   0.07  0.00  0.00  0.93  0.00  0.00  0.00  0.67  0.00
  HS02004856HS02004862    1.00   0.00  0.11  0.00  0.89  0.00  0.00  0.00  0.72  0.00
  HS02004852HS02004856    1.00   0.06  0.01  0.00  0.92  0.00  0.00  0.00  0.82  0.00
  HS02004802HS02004478    1.00   0.07  0.01  0.00  0.92  0.00  0.00  0.00  0.00  0.00
  HS02004478WS02006287    1.00   0.08  0.00  0.00  0.92  0.00  0.00  0.00  0.81  0.00
  HS02004817HS02004807    1.00   0.00  0.07  0.00  0.93  0.00  0.00  0.00  0.00  0.00
  HS02004807HS02004802    1.00   0.07  0.00  0.00  0.93  0.00  0.00  0.00  0.01  0.00
  YS02001759YS02001757    1.00   0.00  0.00  0.00  1.00  0.00  0.00  0.00  0.17  0.00
  YS02001762YS02001759    1.00   0.00  0.00  0.00  1.00  0.00  0.00  0.00  0.06  0.00
  YS02001765YS02001762    1.00   0.00  0.00  0.00  1.00  0.00  0.00  0.00  0.24  0.00
  YS02001770YS02001767    1.00   0.00  0.00  0.00  1.00  0.00  0.00  0.00  0.00  0.00
  YS02001774YS02001770    1.00   0.00  0.08  0.00  0.92  0.00  0.00  0.00  0.07  0.00
  YS02001779YS02001774    1.00   0.00  0.00  0.00  1.00  0.00  0.00  0.00  0.30  0.00
  YS02001649YS02001757    1.00   0.00  0.00  0.00  1.00  0.00  0.00  0.00  0.20  0.00
  YS02001767YS02001765    1.00   0.00  0.00  0.00  1.00  0.00  0.00  0.00  0.01  0.00
  YS02006561YS02001783    1.00   0.11  0.00  0.00  0.00  0.89  0.00  0.00  0.71  0.00
  YS02001783YS02001784    1.00   0.00  0.11  0.00  0.89  0.00  0.00  0.00  0.39  0.00
  YS02001784YS02001785    1.00   0.00  0.00  0.00  1.00  0.00  0.00  0.00  0.28  0.00
  YS02001788YS02001790    1.00   0.00  0.00  0.00  0.11  0.89  0.00  0.00  0.99  0.00
  YS02001790YS02001791    1.00   0.00  0.00  0.00  0.00  1.00  0.00  0.00  0.06  0.00
  YS02001791YS02001793    1.00   0.00  0.00  0.00  0.00  1.00  0.00  0.00  0.00  0.00
  YS02001910YS02001907    1.00   0.00  0.00  0.00  0.99  0.00  0.00  0.01  0.13  0.00
  YS02001786YS02001788    1.00   0.00  0.00  0.00  0.50  0.50  0.00  0.00  0.00  0.00
  YS02001915YS02001910    1.00   0.00  0.00  0.00  1.00  0.00  0.00  0.00  0.26  0.00
  YS02001918YS02001915    1.00   0.00  0.00  0.00  0.99  0.00  0.00  0.00  0.80  0.00
  YS02001923YS02001920    1.00   0.00  0.00  0.00  1.00  0.00  0.00  0.00  1.00  0.00
  YS02001926YS02001923    1.00   0.00  0.05  0.00  0.00  0.00  0.95  0.00  0.00  0.00
  YS02001929YS02001926    1.00   0.00  0.06  0.00  0.94  0.00  0.00  0.00  0.86  0.00
  YS02001920YS02001918    1.00   0.00  0.00  0.00  1.00  0.00  0.00  0.00  0.00  0.00
  YS02001629YS02163301    1.00   0.09  0.01  0.00  0.90  0.00  0.00  0.00  0.00  0.00
  YS02001619YS02001622    1.00   0.06  0.00  0.00  0.94  0.00  0.00  0.00  0.00  0.00
  YS02001622YS02001625    1.00   0.07  0.00  0.00  0.93  0.00  0.00  0.00  0.16  0.00
  YS02001625YS02001629    1.00   0.07  0.05  0.00  0.84  0.00  0.04  0.00  0.00  0.00
  YS02163301YS02001633    1.00   0.00  0.09  0.00  0.91  0.00  0.00  0.00  0.00  0.00
  YS02163601YS02164001    1.00   0.00  0.05  0.00  0.95  0.00  0.00  0.00  0.00  0.00
  YS02164001YS02001641    1.00   0.00  0.05  0.00  0.95  0.00  0.00  0.00  0.07  0.00
  YS02001641YS02001644    1.00   0.00  0.00  0.00  1.00  0.00  0.00  0.00  0.00  0.00
  YS02001647YS02001649    1.00   0.00  0.11  0.00  0.89  0.00  0.00  0.00  0.01  0.00
  YS02006553YS02006556    1.00   0.00  0.00  0.00  1.00  0.00  0.00  0.00  0.03  0.00
  YS02006556YS02006558    1.00   0.00  0.00  0.00  1.00  0.00  0.00  0.00  0.00  0.00
  YSB6556YSB1171          1.00   0.03  0.03  0.00  0.94  0.00  0.00  0.00  0.00  0.00
  YS02001907YS02006553    1.00   0.00  0.01  0.00  0.99  0.00  0.00  0.00  0.00  0.00
  YS02006558YS02006561    1.00   0.11  0.00  0.00  0.00  0.89  0.00  0.00  0.66  0.00
  YS02001633YS02163601    1.00   0.00  0.00  0.00  1.00  0.00  0.00  0.00  0.20  0.00
  YS02001644YS02001647    1.00   0.00  0.11  0.00  0.89  0.00  0.00  0.00  0.00  0.00
  YS02001745YS02001748    1.00   0.00  0.00  0.00  0.00  0.00  0.00  1.00  0.00  0.00
  YS02001748YS02001751    1.00   0.00  0.00  0.00  0.94  0.06  0.00  0.00  0.88  0.00
  YS02001751YS02001754    1.00   0.00  0.00  0.00  0.88  0.00  0.00  0.12  0.05  0.00
  YS02001754YS02001757    1.00   0.00  0.00  0.00  1.00  0.00  0.00  0.00  0.29  0.00
  YS02001882YS02001884    1.00   0.09  0.01  0.00  0.90  0.00  0.00  0.00  0.00  0.00
  YS02001884YS02001887    1.00   0.04  0.02  0.00  0.94  0.00  0.00  0.00  0.00  0.00
  YS02001890YS02001895    1.00   0.00  0.10  0.00  0.90  0.00  0.00  0.00  0.00  0.00
  YS02001895YS02001898    1.00   0.10  0.00  0.00  0.89  0.00  0.01  0.00  0.00  0.00
  YS02001898YS02001901    1.00   0.09  0.01  0.00  0.90  0.00  0.00  0.00  0.02  0.00
  YS02001901YS02001904    1.00   0.09  0.00  0.00  0.91  0.00  0.00  0.00  0.00  0.00
  YS02001904YS02001907    1.00   0.00  0.09  0.00  0.91  0.00  0.00  0.00  0.00  0.00
  YS02001887YS02001890    1.00   0.00  0.00  0.00  0.99  0.00  0.01  0.00  0.00  0.00
  YS02001652YS02001649    1.00   0.00  0.00  0.00  1.00  0.00  0.00  0.00  0.29  0.00
  YS02001655YS02001652    1.00   0.00  0.00  0.00  0.88  0.00  0.00  0.12  0.05  0.00
  YS02001658YS02001655    1.00   0.00  0.08  0.00  0.86  0.05  0.00  0.00  0.79  0.00
  YS02001661YS02001658    1.00   0.08  0.00  0.00  0.00  0.92  0.00  0.00  0.74  0.00
  YS02001664YS02001661    1.00   0.06  0.00  0.00  0.94  0.00  0.00  0.00  0.86  0.00
  YSB1154YSB6556          1.00   0.06  0.00  0.00  0.94  0.00  0.00  0.00  0.02  0.00
  YSB1174YSB1171          1.00   0.04  0.01  0.00  0.95  0.00  0.00  0.00  0.00  0.00
  YSB1171HS02004479       1.00   0.03  0.00  0.00  0.96  0.00  0.00  0.01  0.13  0.00
  HS02004881HS02006253    1.00   0.04  0.00  0.00  0.22  0.03  0.00  0.71  0.13  0.00
  YS02001793JiankangQianchi    1.00   0.00  0.00  0.00  0.22  0.78  0.00  0.00  0.23  0.00
  YS02001757CaochengTiaoxuchi    1.00   0.00  0.16  0.00  0.84  0.00  0.00  0.00  0.00  0.00
  WSF200WS02003060        1.00   0.00  0.08  0.00  0.68  0.24  0.00  0.00  0.74  0.00
  1                       1.00   0.00  0.00  0.00  0.00  1.00  0.00  0.00  0.36  0.00
  2                       1.00   1.00  0.00  0.00  0.00  0.00  0.00  0.00  0.00  0.00
  3                       1.00   0.87  0.00  0.00  0.00  0.13  0.00  0.00  0.90  0.00
  4                       1.00   1.00  0.00  0.00  0.00  0.00  0.00  0.00  0.00  0.00
  
  
  *************************
  Conduit Surcharge Summary
  *************************
  
  ----------------------------------------------------------------------------
                                                           Hours        Hours 
                         --------- Hours Full --------   Above Full   Capacity
  Conduit                Both Ends  Upstream  Dnstream   Normal Flow   Limited
  ----------------------------------------------------------------------------
  WS02006229WS02006228        0.01      0.01      0.01      0.03         0.01
  WS02006256WS02006235        4.28      4.29      7.18      0.77         0.01
  WS02006252WS02006251        0.01      0.01      0.06      0.03         0.01
  WS02006249WS02006248        0.01      0.01      0.01      0.39         0.01
  WS02006247WS02006245        0.01      0.01      0.01      1.35         0.01
  WS02006242WS02006240        0.01      0.01      0.01      0.02         0.01
  WS02006235WS02006234        0.01      0.01      0.01      4.01         0.01
  WS02006231WS02006230        0.01      0.01      0.01      4.54         0.01
  WS02006230WS02006229        0.01      0.01      0.01      5.00         0.01
  WS02006228WS02006109        0.01      0.01      0.01      1.09         0.01
  WS02006111WS02006112        0.01      0.01      0.02      0.01         0.01
  WS02004404WS02004405        0.01      0.01      0.01      4.37         0.01
  WS02003072WS02003073        0.01      0.01      0.01      0.70         0.01
  YS02001793JiankangQianchi        0.01      0.01      0.47      0.01         0.01
  
  
  ***************
  Pumping Summary
  ***************
  
  ---------------------------------------------------------------------------------------------------------
                                                  Min       Avg       Max     Total     Power    % Time Off
                        Percent   Number of      Flow      Flow      Flow    Volume     Usage    Pump Curve
  Pump                 Utilized   Start-Ups       LPS       LPS       LPS  10^6 ltr     Kw-hr    Low   High
  ---------------------------------------------------------------------------------------------------------
  CC-Pump-1               41.89           4      0.00     81.88    200.00     0.881      3.64    0.0  100.0
  CC-Pump-2               34.05           5      0.00     80.82    200.00     0.691      2.87    0.0  100.0
  JK-Pump-1               55.32           6      0.00     55.81    299.57     0.576     10.40    0.0    0.0
  JK-Pump-2               68.09           9      0.00     55.94    299.57     0.724     13.23    0.0    0.0
  XR-Pump-1               74.46           7      0.00     64.15     95.00     1.282     10.55    0.0    0.0
  XR-Pump-2               65.96           8      0.00     64.90     95.00     1.197      9.39    0.0    0.0
  XR-Pump-3               63.81           8      0.00     55.75     95.00     1.054      8.43    0.0    0.0
  XR-Pump-4               53.19           6      0.00     67.20     95.00     1.055     10.73    0.0    0.0
  

  Analysis begun on:  Thu Jan  6 00:27:03 2022
  Analysis ended on:  Thu Jan  6 00:27:05 2022
  Total elapsed time: 00:00:02