
  EPA STORM WATER MANAGEMENT MODEL - VERSION 5.1 (Build 5.3.0.dev0)
  --------------------------------------------------------------

  WARNING 04: minimum elevation drop used for Conduit WS02004404WS02004405
  WARNING 03: negative offset ignored for Link YS02001904YS02001907
  
  *********************************************************
  NOTE: The summary statistics displayed in this report are
  based on results found at every computational time step,  
  not just on results from each reporting time step.
  *********************************************************
  
  ****************
  Analysis Options
  ****************
  Flow Units ............... LPS
  Process Models:
    Rainfall/Runoff ........ YES
    RDII ................... NO
    Snowmelt ............... NO
    Groundwater ............ NO
    Flow Routing ........... YES
    Ponding Allowed ........ NO
    Water Quality .......... NO
  Infiltration Method ...... HORTON
  Flow Routing Method ...... DYNWAVE
  Surcharge Method ......... EXTRAN
  Starting Date ............ 08/28/2015 08:00:00
  Ending Date .............. 08/28/2015 15:50:00
  Antecedent Dry Days ...... 8.0
  Report Time Step ......... 00:01:00
  Wet Time Step ............ 00:01:00
  Dry Time Step ............ 00:01:00
  Routing Time Step ........ 5.00 sec
  Variable Time Step ....... YES
  Maximum Trials ........... 8
  Number of Threads ........ 4
  Head Tolerance ........... 0.001500 m
  
  
  **************************        Volume         Depth
  Runoff Quantity Continuity     hectare-m            mm
  **************************     ---------       -------
  Total Precipitation ......         2.605         5.704
  Evaporation Loss .........         0.000         0.000
  Infiltration Loss ........         0.653         1.430
  Surface Runoff ...........         1.076         2.356
  Final Storage ............         0.876         1.919
  Continuity Error (%) .....        -0.018
  
  
  **************************        Volume        Volume
  Flow Routing Continuity        hectare-m      10^6 ltr
  **************************     ---------     ---------
  Dry Weather Inflow .......         0.616         6.165
  Wet Weather Inflow .......         1.075        10.754
  Groundwater Inflow .......         0.000         0.000
  RDII Inflow ..............         0.000         0.000
  External Inflow ..........         0.102         1.024
  External Outflow .........         1.312        13.122
  Flooding Loss ............         0.193         1.933
  Evaporation Loss .........         0.000         0.000
  Exfiltration Loss ........         0.000         0.000
  Initial Stored Volume ....         0.076         0.761
  Final Stored Volume ......         0.411         4.113
  Continuity Error (%) .....        -2.487
  
  
  *************************
  Highest Continuity Errors
  *************************
  Node HS02004842 (29.23%)
  Node YS02001884 (23.52%)
  Node JK-storage (-12.32%)
  Node YS02001774 (11.21%)
  Node YSB1171 (7.25%)
  
  
  ***************************
  Time-Step Critical Elements
  ***************************
  Link WS02006252WS02006251 (57.25%)
  Link 3 (30.88%)
  Link WS02006238WS02006235 (4.29%)
  Link WS02006280WS02006229 (2.83%)
  
  
  ********************************
  Highest Flow Instability Indexes
  ********************************
  Link WS02006113WS02006111 (49)
  Link WS02006111WS02006112 (18)
  Link YS02164001YS02001641 (9)
  Link YS02001629YS02163301 (9)
  Link YS02001644YS02001647 (9)
  
  
  *************************
  Routing Time Step Summary
  *************************
  Minimum Time Step           :     0.50 sec
  Average Time Step           :     0.94 sec
  Maximum Time Step           :     5.00 sec
  Percent in Steady State     :    -0.00
  Average Iterations per Step :     3.01
  Percent Not Converging      :    12.00
  
  
  ***************************
  Subcatchment Runoff Summary
  ***************************
  
  ------------------------------------------------------------------------------------------------------------------------------
                            Total      Total      Total      Total     Imperv       Perv      Total       Total     Peak  Runoff
                           Precip      Runon       Evap      Infil     Runoff     Runoff     Runoff      Runoff   Runoff   Coeff
  Subcatchment                 mm         mm         mm         mm         mm         mm         mm    10^6 ltr      LPS
  ------------------------------------------------------------------------------------------------------------------------------
  sub0                       5.70       0.00       0.00       0.40       4.04       0.00       4.04        0.00     1.40   0.708
  sub1                       5.70       0.00       0.00       0.63       3.82       0.00       3.82        0.03     7.17   0.670
  sub2                       5.70       0.00       0.00       2.11       2.69       0.00       2.69        0.03     6.32   0.471
  sub3                       5.70       0.00       0.00       2.11       2.65       0.00       2.65        0.06    12.95   0.465
  sub4                       5.70       0.00       0.00       0.63       3.68       0.00       3.68        0.08    14.48   0.646
  sub5                       5.70       0.00       0.00       0.40       3.99       0.00       3.99        0.05    12.76   0.700
  sub7                       5.70       0.00       0.00       0.51       3.94       0.00       3.94        0.01     4.53   0.690
  sub8                       5.70       0.00       0.00       0.51       3.93       0.00       3.93        0.03     7.98   0.688
  sub9                       5.70       0.00       0.00       0.51       3.93       0.00       3.93        0.02     5.91   0.688
  sub10                      5.70       0.00       0.00       0.46       3.96       0.00       3.96        0.04    12.75   0.694
  sub11                      5.70       0.00       0.00       0.46       3.97       0.00       3.97        0.05    15.02   0.697
  sub12                      5.70       0.00       0.00       0.74       3.77       0.00       3.77        0.03    12.81   0.662
  sub14                      5.70       0.00       0.00       0.51       3.92       0.00       3.92        0.04    11.54   0.688
  sub15                      5.70       0.00       0.00       1.71       3.01       0.00       3.01        0.05    15.64   0.529
  sub16                      5.70       0.00       0.00       1.88       2.90       0.00       2.90        0.03    11.24   0.509
  sub17                      5.70       0.00       0.00       1.83       2.94       0.00       2.94        0.03     9.07   0.516
  sub22                      5.70       0.00       0.00       2.45       2.46       0.00       2.46        0.16    51.43   0.432
  sub23                      5.70       0.00       0.00       2.11       2.72       0.00       2.72        0.13    43.83   0.478
  sub60                      5.70       0.00       0.00       0.68       2.62       0.00       2.62        0.79    72.79   0.459
  sub61                      5.70       0.00       0.00       0.97       2.81       0.00       2.81        0.87    91.48   0.492
  sub62                      5.70       0.00       0.00       0.46       3.01       0.00       3.01        0.92    93.44   0.528
  sub63                      5.70       0.00       0.00       1.65       2.51       0.00       2.51        0.76    85.46   0.439
  sub64                      5.70       0.00       0.00       0.86       2.50       0.00       2.50        0.76    69.11   0.438
  sub65                      5.70       0.00       0.00       0.74       2.53       0.00       2.53        0.78    70.10   0.444
  sub66                      5.70       0.00       0.00       1.65       2.18       0.00       2.18        0.67    63.40   0.383
  sub67                      5.70       0.00       0.00       0.46       3.32       0.00       3.32        1.02   120.20   0.582
  sub68                      5.70       0.00       0.00       0.80       2.99       0.00       2.99        0.92   101.20   0.524
  sub69                      5.70       0.00       0.00       0.86       3.24       0.00       3.24        0.76   100.83   0.568
  sub70                      5.70       3.31       0.00       3.06       3.95       0.00       3.95        0.90    80.33   0.438
  sub71                      5.70       0.00       0.00       0.46       2.87       0.00       2.87        0.68    65.18   0.504
  sub72                      5.70       0.00       0.00       0.40       2.01       0.00       2.01        0.41    30.52   0.353
  sub73                      5.70       3.84       0.00       3.25       4.00       0.00       4.00        0.94    68.82   0.419
  sub74                      5.70       0.00       0.00       4.28       0.98       0.00       0.98        0.39    56.34   0.171
  
  
  ******************
  Node Depth Summary
  ******************
  
  ---------------------------------------------------------------------------------
                                 Average  Maximum  Maximum  Time of Max    Reported
                                   Depth    Depth      HGL   Occurrence   Max Depth
  Node                 Type       Meters   Meters   Meters  days hr:min      Meters
  ---------------------------------------------------------------------------------
  WS02001211           JUNCTION     0.60     0.71     5.54     0  04:30        0.71
  WS02001212           JUNCTION     0.33     0.42     5.49     0  04:30        0.42
  WS02001213           JUNCTION     0.56     0.67     5.43     0  04:29        0.67
  WS02003069           JUNCTION     0.39     0.50     5.08     0  03:13        0.50
  WS02003072           JUNCTION     0.46     0.56     4.93     0  03:14        0.56
  WS02003073           JUNCTION     0.27     0.34     4.41     0  03:15        0.34
  WS02003060           JUNCTION     0.35     0.44     5.37     0  03:13        0.44
  WS02003066           JUNCTION     0.22     0.28     5.83     0  03:05        0.28
  WS02003059           JUNCTION     0.63     0.73     5.41     0  03:12        0.73
  WS02003067           JUNCTION     0.55     0.67     5.99     0  03:05        0.67
  WS02004401           JUNCTION     0.63     0.79     6.79     0  03:02        0.79
  WS02004402           JUNCTION     0.66     0.82     6.78     0  03:01        0.82
  WS02004403           JUNCTION     0.68     0.84     6.77     0  03:01        0.84
  WS02004404           JUNCTION     0.76     0.91     6.76     0  03:01        0.91
  WS02004406           JUNCTION     0.77     0.91     6.74     0  03:02        0.91
  WS02004409           JUNCTION     0.45     0.61     6.38     0  03:04        0.61
  WS02004410           JUNCTION     0.47     0.63     6.35     0  03:04        0.63
  WS02004411           JUNCTION     0.49     0.64     6.32     0  03:05        0.64
  WS02004412           JUNCTION     0.50     0.65     6.29     0  03:05        0.65
  WS02004413           JUNCTION     0.67     0.81     6.28     0  03:05        0.81
  WS02004405           JUNCTION     0.75     0.91     6.76     0  03:01        0.91
  WS02006109           JUNCTION     0.70     0.89     7.51     0  02:56        0.89
  WS02006110           JUNCTION     0.70     0.87     7.45     0  02:56        0.87
  WS02006111           JUNCTION     0.20     0.27     6.97     0  02:57        0.27
  WS02006112           JUNCTION     0.79     0.98     6.86     0  03:01        0.98
  WS02006113           JUNCTION     0.31     0.42     7.31     0  02:57        0.42
  WS02006115           JUNCTION     0.52     0.69     6.83     0  03:01        0.69
  WS02006116           JUNCTION     0.60     0.77     6.81     0  03:01        0.77
  WS02006230           JUNCTION     0.65     0.92     7.67     0  02:56        0.92
  WS02006231           JUNCTION     0.43     0.61     7.74     0  02:57        0.61
  WS02006232           JUNCTION     0.56     0.75     7.79     0  02:56        0.75
  WS02006234           JUNCTION     0.48     0.69     7.85     0  02:56        0.69
  WS02006235           JUNCTION     0.51     0.72     7.89     0  02:56        0.72
  WS02006238           JUNCTION     0.53     0.75     7.90     0  04:32        0.75
  WS02006240           JUNCTION     0.43     0.68     7.97     0  04:31        0.68
  WS02006242           JUNCTION     0.48     0.75     8.02     0  04:31        0.75
  WS02006243           JUNCTION     0.36     0.64     8.06     0  04:31        0.63
  WS02006245           JUNCTION     0.35     0.61     8.09     0  04:31        0.61
  WS02006247           JUNCTION     0.37     0.62     8.12     0  04:31        0.62
  WS02006248           JUNCTION     0.32     0.56     8.15     0  04:31        0.56
  WS02006249           JUNCTION     0.36     0.58     8.18     0  04:30        0.58
  WS02006239           JUNCTION     0.49     0.73     7.94     0  04:32        0.73
  WS02006251           JUNCTION     0.34     0.60     8.27     0  02:50        0.60
  WS02006252           JUNCTION     0.31     0.59     8.83     0  04:09        0.58
  WS02006253           JUNCTION     0.37     0.63     8.27     0  02:50        0.63
  WS02006256           JUNCTION     0.95     1.20     8.14     0  03:50        1.20
  WS02004138           JUNCTION     0.13     0.17     7.42     0  00:50        0.17
  WS02004407           JUNCTION     0.20     0.27     6.59     0  03:02        0.27
  WS02006228           JUNCTION     0.69     0.92     7.57     0  02:56        0.92
  WS02006229           JUNCTION     0.66     0.90     7.60     0  02:56        0.90
  WS02006280           JUNCTION     0.05     0.14     8.41     0  02:19        0.14
  WS02006284           JUNCTION     0.34     0.48     8.88     0  02:18        0.48
  WS02006287           JUNCTION     0.07     0.21     9.16     0  02:18        0.21
  WSF200               JUNCTION     0.20     0.28     5.51     0  03:09        0.28
  HS02004901           JUNCTION     0.11     0.23    10.05     0  02:16        0.23
  HS02004881           JUNCTION     0.01     0.02     9.05     0  02:18        0.02
  HS02004876           JUNCTION     0.03     0.10     9.13     0  02:17        0.10
  HS02004870           JUNCTION     0.01     0.04     9.33     0  02:18        0.04
  HS02004862           JUNCTION     0.01     0.05     9.43     0  02:19        0.05
  HS02004856           JUNCTION     0.07     0.10     9.53     0  02:19        0.10
  HS02004852           JUNCTION     0.01     0.03     9.54     0  02:20        0.03
  HS02004848           JUNCTION     0.01     0.03     9.63     0  02:18        0.03
  HS02004842           JUNCTION     0.33     0.36     9.63     0  02:18        0.36
  HS02004837           JUNCTION     0.03     0.05     9.63     0  02:18        0.05
  HS02004830           JUNCTION     0.04     0.06     9.53     0  02:18        0.06
  HS02004824           JUNCTION     0.02     0.04     9.44     0  02:21        0.04
  HS02004817           JUNCTION     0.42     0.52     9.37     0  02:19        0.52
  HS02004807           JUNCTION     0.11     0.20     9.37     0  02:19        0.20
  HS02004802           JUNCTION     0.15     0.23     9.36     0  02:19        0.23
  HS02004799           JUNCTION     0.09     0.25     9.46     0  02:17        0.25
  HS02004792           JUNCTION     0.02     0.10     9.62     0  02:16        0.10
  HS02004788           JUNCTION     0.02     0.07     9.97     0  02:17        0.07
  HS02004785           JUNCTION     0.03     0.13    10.03     0  02:17        0.13
  HS02004777           JUNCTION     0.13     0.25    10.05     0  02:16        0.25
  HS02004770           JUNCTION     0.10     0.22    10.05     0  02:16        0.22
  HS02004480           JUNCTION     0.06     0.19     9.44     0  02:17        0.19
  HS02004479           JUNCTION     0.10     0.23     9.44     0  02:17        0.23
  HS02004478           JUNCTION     0.05     0.12     9.35     0  02:18        0.12
  YS02001745           JUNCTION     0.13     0.30     7.82     0  05:52        0.29
  YS02001748           JUNCTION     0.48     0.71     7.79     0  05:42        0.70
  YS02001751           JUNCTION     0.66     0.93     7.81     0  05:43        0.93
  YS02001754           JUNCTION     0.91     1.33     7.93     0  04:16        1.19
  YS02001762           JUNCTION     1.11     1.58     7.98     0  04:08        1.41
  YS02001765           JUNCTION     1.06     1.61     8.06     0  04:08        1.37
  YS02001767           JUNCTION     1.03     1.66     8.15     0  04:08        1.36
  YS02001770           JUNCTION     1.02     1.77     8.26     0  04:08        1.39
  YS02001774           JUNCTION     1.09     1.87     8.29     0  04:08        1.49
  YS02001779           JUNCTION     0.84     1.61     8.30     0  04:08        1.28
  YS02001882           JUNCTION     0.27     0.45     7.16     0  02:54        0.45
  YS02001884           JUNCTION     0.37     0.54     7.16     0  02:54        0.54
  YS02001759           JUNCTION     1.14     1.51     7.88     0  06:13        1.43
  YS02001887           JUNCTION     0.45     0.62     7.16     0  02:54        0.62
  YS02001890           JUNCTION     0.48     0.65     7.16     0  02:54        0.65
  YS02001898           JUNCTION     0.25     0.41     7.14     0  02:55        0.41
  YS02001901           JUNCTION     0.36     0.54     7.14     0  02:55        0.54
  YS02001904           JUNCTION     0.34     0.51     7.14     0  02:55        0.51
  YS02001907           JUNCTION     0.67     0.85     7.14     0  02:55        0.85
  YS02001910           JUNCTION     0.46     0.64     7.14     0  02:55        0.64
  YS02001915           JUNCTION     0.26     0.42     7.14     0  02:55        0.42
  YS02001918           JUNCTION     0.07     0.09     7.16     0  03:03        0.09
  YS02001619           JUNCTION     0.62     0.85     7.78     0  05:48        0.85
  YS02001629           JUNCTION     0.97     1.24     7.79     0  05:48        1.24
  YS02001641           JUNCTION     1.08     1.39     7.82     0  05:52        1.35
  YS02001644           JUNCTION     1.08     1.39     7.82     0  05:07        1.35
  YS02001652           JUNCTION     0.93     1.21     7.81     0  05:48        1.20
  YS02001655           JUNCTION     0.69     0.97     7.82     0  05:48        0.97
  YS02001920           JUNCTION     0.17     0.20     7.21     0  03:02        0.20
  YS02001923           JUNCTION     0.06     0.08     7.34     0  03:02        0.08
  YS02001926           JUNCTION     0.14     0.17     7.62     0  03:01        0.17
  YS02001929           JUNCTION     0.06     0.08     7.78     0  03:01        0.08
  YS02001658           JUNCTION     0.43     0.66     7.80     0  05:49        0.64
  YS02001661           JUNCTION     0.22     0.39     7.79     0  05:48        0.39
  YS02001664           JUNCTION     0.07     0.11     8.04     0  02:46        0.11
  YS02001622           JUNCTION     0.65     0.87     7.77     0  05:48        0.87
  YS02001633           JUNCTION     1.06     1.36     7.81     0  05:52        1.33
  YS02001649           JUNCTION     1.12     1.42     7.81     0  05:52        1.39
  YS02001757           JUNCTION     1.24     1.56     7.82     0  05:52        1.52
  YS02001895           JUNCTION     0.24     0.41     7.15     0  02:54        0.41
  YS02001625           JUNCTION     0.92     1.17     7.78     0  05:48        1.17
  YS02163301           JUNCTION     1.00     1.28     7.80     0  05:48        1.27
  YS02163601           JUNCTION     1.12     1.42     7.81     0  05:52        1.38
  YS02164001           JUNCTION     1.06     1.36     7.82     0  05:07        1.32
  YS02001647           JUNCTION     0.91     1.22     7.83     0  05:07        1.17
  YSB1154              JUNCTION     0.23     0.38     9.44     0  02:17        0.38
  YSB6556              JUNCTION     0.13     0.27     9.44     0  02:17        0.27
  YSB1174              JUNCTION     0.19     0.33     9.44     0  02:17        0.33
  YSB1171              JUNCTION     0.38     0.53     9.44     0  02:17        0.53
  YS02006553           JUNCTION     0.68     0.86     7.14     0  02:55        0.86
  YS02006561           JUNCTION     0.13     0.22     6.88     0  02:55        0.22
  YS02006556           JUNCTION     0.65     0.83     7.14     0  02:55        0.83
  YS02006558           JUNCTION     0.69     0.87     7.14     0  02:55        0.87
  YS02001783           JUNCTION     0.23     0.39     6.53     0  02:56        0.39
  YS02001784           JUNCTION     0.26     0.42     6.49     0  02:56        0.42
  YS02001786           JUNCTION     0.23     0.36     6.39     0  02:56        0.36
  YS02001788           JUNCTION     0.16     0.27     6.24     0  02:57        0.27
  YS02001790           JUNCTION     0.20     0.32     5.97     0  02:57        0.32
  YS02001791           JUNCTION     0.13     0.21     5.68     0  03:02        0.21
  YS02001793           JUNCTION     0.07     0.22     5.06     0  03:00        0.15
  WS02004139           JUNCTION     0.53     0.65     5.56     0  04:30        0.65
  WSC                  OUTFALL      0.27     0.34     1.01     0  03:15        0.34
  3                    OUTFALL      0.06     0.20     6.20     0  03:50        0.20
  4                    OUTFALL      0.01     0.08     7.08     0  04:30        0.08
  5                    OUTFALL      0.00     0.00     5.00     0  00:00        0.00
  JK-storage           STORAGE      0.93     4.25     5.05     0  03:01        4.25
  CC-storage           STORAGE      0.51     0.75     7.75     0  05:48        0.75
  XR-storage           STORAGE      7.54     7.72     5.72     0  01:50        7.72
  
  
  *******************
  Node Inflow Summary
  *******************
  
  -------------------------------------------------------------------------------------------------
                                  Maximum  Maximum                  Lateral       Total        Flow
                                  Lateral    Total  Time of Max      Inflow      Inflow     Balance
                                   Inflow   Inflow   Occurrence      Volume      Volume       Error
  Node                 Type           LPS      LPS  days hr:min    10^6 ltr    10^6 ltr     Percent
  -------------------------------------------------------------------------------------------------
  WS02001211           JUNCTION      7.35   293.52     0  07:34       0.207        4.99       0.738
  WS02001212           JUNCTION      0.00   294.51     0  07:35           0        4.95       0.414
  WS02001213           JUNCTION      0.00   295.48     0  07:34           0        4.94       0.447
  WS02003069           JUNCTION      0.32   715.93     0  03:13     0.00902        11.3       0.246
  WS02003072           JUNCTION      0.00   715.45     0  03:13           0        11.2       0.308
  WS02003073           JUNCTION      1.82   717.01     0  03:14      0.0514        11.3       0.345
  WS02003060           JUNCTION     16.53   715.72     0  03:12       0.466        11.3       0.235
  WS02003066           JUNCTION      0.00   460.51     0  03:05           0        5.95       0.063
  WS02003059           JUNCTION      0.00   297.34     0  07:34           0        4.92       0.777
  WS02003067           JUNCTION      0.00   460.48     0  03:05           0        5.96       0.138
  WS02004401           JUNCTION      0.00   466.26     0  02:59           0        6.16       0.308
  WS02004402           JUNCTION      0.00   465.17     0  03:00           0        6.14       0.294
  WS02004403           JUNCTION      0.00   464.43     0  03:01           0        6.12       0.271
  WS02004404           JUNCTION      0.16   464.38     0  03:01     0.00457        6.11       0.208
  WS02004406           JUNCTION      0.00   464.60     0  03:01           0        6.08       0.509
  WS02004409           JUNCTION      0.00   464.18     0  03:02           0        6.04       0.219
  WS02004410           JUNCTION      0.00   462.61     0  03:03           0        6.03       0.254
  WS02004411           JUNCTION      0.00   461.57     0  03:04           0        6.02       0.265
  WS02004412           JUNCTION      0.00   461.04     0  03:04           0           6       0.293
  WS02004413           JUNCTION      0.00   460.65     0  03:05           0        5.98       0.447
  WS02004405           JUNCTION      0.04   464.52     0  03:01     0.00107         6.1       0.312
  WS02006109           JUNCTION      1.23   469.87     0  02:56      0.0347        6.24       0.234
  WS02006110           JUNCTION      0.00   469.89     0  02:57           0        6.23       0.299
  WS02006111           JUNCTION      0.00   484.51     0  02:57           0         6.2       0.058
  WS02006112           JUNCTION      9.07   475.73     0  02:57      0.0252        6.22       0.436
  WS02006113           JUNCTION      0.00   470.22     0  02:57           0        6.21       0.127
  WS02006115           JUNCTION      0.00   471.04     0  02:58           0        6.19       0.284
  WS02006116           JUNCTION      0.00   467.93     0  02:59           0        6.18       0.248
  WS02006230           JUNCTION     10.28   395.03     0  04:32        0.29        5.36       0.192
  WS02006231           JUNCTION      0.00   385.67     0  04:32           0        5.08       0.196
  WS02006232           JUNCTION      0.00   385.73     0  04:32           0        5.09       0.274
  WS02006234           JUNCTION      0.00   386.94     0  04:31           0         5.1       0.115
  WS02006235           JUNCTION      0.00   388.45     0  04:31           0        5.15       0.186
  WS02006238           JUNCTION      0.00   335.55     0  06:11           0        3.45       0.179
  WS02006240           JUNCTION      0.00   335.50     0  06:11           0        3.43       0.286
  WS02006242           JUNCTION      0.00   340.97     0  02:51           0        3.43       0.384
  WS02006243           JUNCTION      0.00   347.17     0  02:51           0        3.41      -0.345
  WS02006245           JUNCTION      0.00   351.18     0  02:51           0        3.42       0.425
  WS02006247           JUNCTION      0.00   355.22     0  02:50           0        3.43       0.201
  WS02006248           JUNCTION      0.00   359.69     0  02:50           0        3.43       0.040
  WS02006249           JUNCTION      0.00   410.71     0  02:50           0        3.55       0.386
  WS02006239           JUNCTION      0.00   335.24     0  06:11           0        3.44       0.201
  WS02006251           JUNCTION      0.08   412.81     0  02:50     0.00217         3.6       0.233
  WS02006252           JUNCTION      0.00   399.98     0  04:30           0        3.42       0.013
  WS02006253           JUNCTION      1.40    39.75     0  02:17     0.00327       0.185       2.209
  WS02006256           JUNCTION      0.00   599.93     0  03:10           0        3.53       0.065
  WS02004138           JUNCTION      0.00   285.00     0  00:50           0        4.82       0.086
  WS02004407           JUNCTION      0.00   464.30     0  03:02           0        6.05       0.099
  WS02006228           JUNCTION      0.00   468.64     0  02:56           0        6.22       0.174
  WS02006229           JUNCTION      0.00   468.64     0  02:56           0        6.23       0.187
  WS02006280           JUNCTION      0.00   204.52     0  02:19           0       0.877       0.008
  WS02006284           JUNCTION      0.10   204.51     0  02:18      0.0027       0.878       0.120
  WS02006287           JUNCTION      0.00   204.39     0  02:18           0       0.876       0.083
  WSF200               JUNCTION      0.00   460.49     0  03:05           0        5.94       0.056
  HS02004901           JUNCTION     11.24    11.24     0  02:10      0.0304      0.0305       6.109
  HS02004881           JUNCTION      4.53    38.69     0  02:17      0.0133       0.139       0.120
  HS02004876           JUNCTION      7.17    34.49     0  02:18      0.0254       0.127       0.418
  HS02004870           JUNCTION      7.98    27.47     0  02:18      0.0251       0.101       0.106
  HS02004862           JUNCTION      6.52    20.04     0  02:18      0.0307      0.0763       0.222
  HS02004856           JUNCTION      5.91    13.57     0  02:18      0.0189      0.0471       3.156
  HS02004852           JUNCTION      0.00     8.04     0  02:18           0      0.0283       0.179
  HS02004848           JUNCTION     12.95    12.95     0  02:21      0.0597      0.0597       0.073
  HS02004842           JUNCTION      0.00     5.36     0  02:31           0      0.0445      41.297
  HS02004837           JUNCTION     19.10    23.65     0  02:17       0.223       0.254       0.319
  HS02004830           JUNCTION      0.15    23.78     0  02:18     0.00423       0.245       0.506
  HS02004824           JUNCTION     14.53    38.13     0  02:21      0.0782       0.322       0.168
  HS02004817           JUNCTION      0.60    38.72     0  02:21      0.0169       0.338       5.187
  HS02004807           JUNCTION     15.02    52.36     0  02:20      0.0461       0.367       1.163
  HS02004802           JUNCTION      0.00    52.64     0  02:21           0       0.363       1.131
  HS02004799           JUNCTION     11.54   129.62     0  02:16      0.0373       0.454       0.501
  HS02004792           JUNCTION     51.71   118.36     0  02:16       0.163       0.417       0.099
  HS02004788           JUNCTION     17.31    68.93     0  02:16      0.0989       0.254       0.154
  HS02004785           JUNCTION      0.15    52.03     0  02:16     0.00423       0.158       0.308
  HS02004777           JUNCTION      0.03    52.35     0  02:14    0.000846       0.158       3.391
  HS02004770           JUNCTION     43.83    53.69     0  02:12        0.13       0.159       1.991
  HS02004480           JUNCTION      0.00   152.79     0  02:17           0       0.529       0.137
  HS02004479           JUNCTION      0.00    23.66     0  02:18           0      0.0877       0.838
  HS02004478           JUNCTION      0.00   204.38     0  02:18           0       0.877       0.072
  YS02001745           JUNCTION     72.80   104.74     0  06:07       0.793       0.847       0.126
  YS02001748           JUNCTION      0.04   175.73     0  05:04     0.00127       0.969       0.882
  YS02001751           JUNCTION      0.01   181.07     0  05:07     0.00031       0.915       1.772
  YS02001754           JUNCTION      0.26   112.55     0  04:16     0.00733       0.796       2.222
  YS02001762           JUNCTION      0.00   124.28     0  03:00           0        0.87       2.412
  YS02001765           JUNCTION      0.00   121.51     0  03:04           0       0.872       2.715
  YS02001767           JUNCTION      0.54   141.10     0  02:59      0.0151       0.891       3.982
  YS02001770           JUNCTION     93.59   149.32     0  03:00       0.929        1.03       2.754
  YS02001774           JUNCTION      0.00    62.25     0  03:00           0       0.222      12.625
  YS02001779           JUNCTION      0.01    57.45     0  04:22    0.000141       0.102      10.900
  YS02001882           JUNCTION      0.00     4.09     0  02:08           0     0.00513      47.742
  YS02001884           JUNCTION      0.00    11.64     0  02:08           0      0.0205      30.759
  YS02001759           JUNCTION     91.52   213.78     0  02:58       0.867         1.7       1.346
  YS02001887           JUNCTION    120.65   120.65     0  02:43        1.04        1.05       0.684
  YS02001890           JUNCTION      0.00   119.94     0  02:45           0        1.02       0.768
  YS02001898           JUNCTION      0.00   119.40     0  02:48           0        1.01       0.214
  YS02001901           JUNCTION      0.00   119.28     0  02:49           0        1.01       0.544
  YS02001904           JUNCTION      0.00   118.71     0  02:51           0        1.01       0.507
  YS02001907           JUNCTION      0.00   216.06     0  02:57           0        2.16       1.028
  YS02001910           JUNCTION      0.00    98.86     0  03:01           0        1.16       0.877
  YS02001915           JUNCTION     65.20    98.32     0  03:01       0.679        1.17       0.388
  YS02001918           JUNCTION      0.00    33.37     0  03:02           0       0.488       0.226
  YS02001619           JUNCTION     63.40    63.40     0  03:00       0.669       0.671       1.165
  YS02001629           JUNCTION      0.00   104.28     0  05:05           0        0.64       3.415
  YS02001641           JUNCTION      0.00   154.38     0  03:01           0         1.3       1.622
  YS02001644           JUNCTION     69.15   225.00     0  03:03       0.761        2.03       1.294
  YS02001652           JUNCTION      0.00   113.46     0  02:46           0       0.768       2.495
  YS02001655           JUNCTION      0.15   158.19     0  05:11     0.00434       0.865       2.052
  YS02001920           JUNCTION      2.87    33.40     0  03:02      0.0809        0.49       0.413
  YS02001923           JUNCTION      0.04    30.53     0  03:01     0.00106        0.41       0.072
  YS02001926           JUNCTION      0.05    30.56     0  03:01     0.00147       0.411       0.517
  YS02001929           JUNCTION     30.52    30.52     0  03:01        0.41        0.41       0.070
  YS02001658           JUNCTION      0.00   154.02     0  05:10           0       0.966       0.926
  YS02001661           JUNCTION      0.00   118.21     0  05:33           0       0.869       0.126
  YS02001664           JUNCTION     85.46    85.46     0  02:46       0.758       0.758       0.016
  YS02001622           JUNCTION      0.00    87.51     0  02:59           0       0.702       3.174
  YS02001633           JUNCTION     70.30   168.16     0  03:06       0.783        1.35       2.322
  YS02001649           JUNCTION      0.00   324.02     0  03:02           0         2.7       1.371
  YS02001757           JUNCTION      0.00   546.77     0  03:01           0        5.06       1.848
  YS02001895           JUNCTION      0.00   119.49     0  02:48           0        1.02       0.365
  YS02001625           JUNCTION      0.00   107.38     0  05:05           0       0.712       5.403
  YS02163301           JUNCTION      0.00   107.92     0  03:05           0       0.595       4.117
  YS02163601           JUNCTION      0.11   156.71     0  03:04      0.0031        1.32       2.313
  YS02164001           JUNCTION      0.00   164.31     0  03:05           0         1.3       1.497
  YS02001647           JUNCTION      0.00   234.09     0  03:04           0        1.99       1.214
  YSB1154              JUNCTION     12.76    12.76     0  02:15      0.0452      0.0466       3.196
  YSB6556              JUNCTION      0.00    12.71     0  02:18           0      0.0477       2.682
  YSB1174              JUNCTION     12.81    12.81     0  02:10       0.033       0.034       3.924
  YSB1171              JUNCTION      0.00    23.65     0  02:17           0      0.0872       7.815
  YS02006553           JUNCTION      0.00   216.15     0  03:02           0        2.15       0.667
  YS02006561           JUNCTION      0.00   317.11     0  02:55           0        3.04       0.021
  YS02006556           JUNCTION      0.00   216.47     0  03:02           0        2.15       0.481
  YS02006558           JUNCTION    102.08   317.13     0  02:55       0.944        3.07       0.147
  YS02001783           JUNCTION      0.00   317.11     0  02:56           0        3.04       0.050
  YS02001784           JUNCTION      1.06   318.17     0  02:56      0.0299        3.07       0.082
  YS02001786           JUNCTION      0.06   318.21     0  02:56     0.00159        3.07       0.080
  YS02001788           JUNCTION      0.07   318.27     0  02:56       0.002        3.07       0.046
  YS02001790           JUNCTION      0.15   318.42     0  02:57     0.00437        3.07       0.057
  YS02001791           JUNCTION      0.00   318.41     0  02:57           0        3.07       0.030
  YS02001793           JUNCTION      0.00   335.92     0  03:01           0        3.07       0.008
  WS02004139           JUNCTION      0.32   285.39     0  00:50     0.00905        4.82       0.792
  WSC                  OUTFALL       0.00   716.48     0  03:15           0        11.2       0.000
  3                    OUTFALL       0.00   496.66     0  03:50           0         1.8       0.000
  4                    OUTFALL       0.00    67.49     0  04:30           0       0.109       0.000
  5                    OUTFALL       0.00     0.00     0  00:00           0           0       0.000 ltr
  JK-storage           STORAGE       0.00   542.91     0  03:01           0        3.22     -10.972
  CC-storage           STORAGE       0.00   538.86     0  03:02           0        4.95       0.666
  XR-storage           STORAGE     318.00   318.00     0  02:55        6.97        7.57      -0.001
  
  
  **********************
  Node Surcharge Summary
  **********************
  
  Surcharging occurs when water rises above the top of the highest conduit.
  ---------------------------------------------------------------------
                                               Max. Height   Min. Depth
                                   Hours       Above Crown    Below Rim
  Node                 Type      Surcharged         Meters       Meters
  ---------------------------------------------------------------------
  WS02006109           JUNCTION        0.67          0.074        1.746
  WS02006232           JUNCTION        0.88          0.051        1.429
  WS02006235           JUNCTION        0.22          0.015        1.275
  WS02006238           JUNCTION        0.52          0.034        1.396
  WS02006242           JUNCTION        0.09          0.020        0.800
  WS02006252           JUNCTION        1.59          0.189        0.911
  WS02006228           JUNCTION        0.59          0.086        2.114
  YS02001754           JUNCTION        2.30          0.275        0.875
  YS02001762           JUNCTION        5.06          0.577        0.573
  YS02001765           JUNCTION        4.83          0.609        0.491
  YS02001767           JUNCTION        4.55          0.663        0.367
  YS02001770           JUNCTION        4.41          0.738        0.182
  YS02001774           JUNCTION        5.02          0.865        0.185
  YS02001779           JUNCTION        1.40          0.611        0.069
  YS02001759           JUNCTION        5.14          0.513        0.697
  YS02001641           JUNCTION        4.97          0.387        0.713
  YS02001644           JUNCTION        4.99          0.393        0.527
  YS02001652           JUNCTION        3.08          0.182        0.948
  YS02001633           JUNCTION        4.64          0.338        0.722
  YS02001649           JUNCTION        5.09          0.416        0.634
  YS02001757           JUNCTION        5.30          0.556        0.654
  YS02001625           JUNCTION        3.42          0.172        0.608
  YS02163301           JUNCTION        4.44          0.280        0.750
  YS02163601           JUNCTION        5.08          0.417        0.663
  YS02164001           JUNCTION        4.84          0.364        0.736
  YS02001647           JUNCTION        3.34          0.216        0.684
  
  
  *********************
  Node Flooding Summary
  *********************
  
  Flooding refers to all water that overflows a node, whether it ponds or not.
  --------------------------------------------------------------------------
                                                             Total   Maximum
                                 Maximum   Time of Max       Flood    Ponded
                        Hours       Rate    Occurrence      Volume     Depth
  Node                 Flooded       LPS   days hr:min    10^6 ltr    Meters
  --------------------------------------------------------------------------
  XR-storage              4.35    315.22      0  02:40       1.933     0.000
  
  
  **********************
  Storage Volume Summary
  **********************
  
  --------------------------------------------------------------------------------------------------
                         Average     Avg  Evap Exfil       Maximum     Max    Time of Max    Maximum
                          Volume    Pcnt  Pcnt  Pcnt        Volume    Pcnt     Occurrence    Outflow
  Storage Unit           1000 m3    Full  Loss  Loss       1000 m3    Full    days hr:min        LPS
  --------------------------------------------------------------------------------------------------
  JK-storage               0.047      16     0     0         0.214      73       0  03:01     599.93
  CC-storage               1.425       9     0     0         2.091      13       0  05:48     399.98
  XR-storage               0.905      98     0     0         0.926     100       0  01:50     285.00
  
  
  ***********************
  Outfall Loading Summary
  ***********************
  
  -----------------------------------------------------------
                         Flow       Avg       Max       Total
                         Freq      Flow      Flow      Volume
  Outfall Node           Pcnt       LPS       LPS    10^6 ltr
  -----------------------------------------------------------
  WSC                  100.00    470.60    716.48      11.213
  3                     63.60    150.94    496.66       1.799
  4                     24.65     21.59     67.49       0.109
  5                      0.00      0.00      0.00       0.000
  -----------------------------------------------------------
  System                47.06    643.12   1120.02      13.122
  
  
  ********************
  Link Flow Summary
  ********************
  
  -----------------------------------------------------------------------------
                                 Maximum  Time of Max   Maximum    Max/    Max/
                                  |Flow|   Occurrence   |Veloc|    Full    Full
  Link                 Type          LPS  days hr:min     m/sec    Flow   Depth
  -----------------------------------------------------------------------------
  WS02003066WSF200     CONDUIT    460.49     0  03:05      2.68    0.08    0.21
  WS02006287WS02006284 CONDUIT    204.41     0  02:18      1.62    0.09    0.22
  WS02006284WS02006280 CONDUIT    204.52     0  02:19      1.86    0.09    0.20
  WS02006280WS02006229 CONDUIT    204.53     0  02:19      2.99    0.04    0.14
  WS02006229WS02006228 CONDUIT    468.64     0  02:56      0.93    1.55    1.00
  WS02006256WS02006235 CONDUIT    151.77     0  02:13      2.17    1.61    1.00
  WS02006253WS02006251 CONDUIT     40.82     0  02:20      0.49    0.12    0.87
  WS02006252WS02006251 CONDUIT    400.11     0  05:10      3.18    1.47    1.00
  WS02006251WS02006249 CONDUIT    410.71     0  02:50      1.19    1.18    0.84
  WS02006249WS02006248 CONDUIT    359.69     0  02:50      1.17    1.97    0.80
  WS02006248WS02006247 CONDUIT    355.22     0  02:50      1.13    0.77    0.84
  WS02006247WS02006245 CONDUIT    351.18     0  02:51      1.10    2.78    0.87
  WS02006245WS02006243 CONDUIT    347.17     0  02:51      1.12    1.03    0.88
  WS02006243WS02006242 CONDUIT    340.97     0  02:51      1.01    0.73    0.96
  WS02006242WS02006240 CONDUIT    335.50     0  06:11      0.96    1.33    0.98
  WS02006240WS02006239 CONDUIT    335.24     0  06:11      1.01    1.05    0.98
  WS02006239WS02006238 CONDUIT    335.55     0  06:11      0.93    1.07    1.00
  WS02006238WS02006235 CONDUIT    334.90     0  06:11      0.92    0.75    1.00
  WS02006235WS02006234 CONDUIT    386.94     0  04:31      1.04    4.08    0.98
  WS02006234WS02006232 CONDUIT    385.73     0  04:32      1.01    0.78    0.99
  WS02006232WS02006231 CONDUIT    385.67     0  04:32      1.05    0.81    0.93
  WS02006231WS02006230 CONDUIT    384.75     0  04:32      1.36    5.84    0.82
  WS02006230WS02006229 CONDUIT    394.66     0  04:32      1.03    8.78    1.00
  WS02006228WS02006109 CONDUIT    468.64     0  02:56      0.93    2.05    1.00
  WS02006116WS02004401 CONDUIT    466.26     0  02:59      0.79    0.64    0.78
  WS02006115WS02006116 CONDUIT    467.93     0  02:59      0.94    0.60    0.70
  WS02006113WS02006111 CONDUIT    484.51     0  02:57      2.35    0.58    0.43
  WS02006112WS02006115 CONDUIT    471.04     0  02:58      0.69    0.28    0.83
  WS02006111WS02006112 CONDUIT    473.06     0  02:57      1.34    0.22    0.66
  WS02006110WS02006113 CONDUIT    470.22     0  02:57      1.14    0.43    0.76
  WS02006109WS02006110 CONDUIT    469.89     0  02:57      0.94    0.90    0.97
  WS02004411WS02004412 CONDUIT    461.04     0  03:04      0.86    0.65    0.65
  WS02004401WS02004402 CONDUIT    465.17     0  03:00      0.84    0.56    0.81
  WS02004413WS02003067 CONDUIT    460.48     0  03:05      1.02    0.20    0.56
  WS02004412WS02004413 CONDUIT    460.65     0  03:05      0.75    0.31    0.73
  WS02004410WS02004411 CONDUIT    461.57     0  03:04      0.88    0.63    0.63
  WS02004409WS02004410 CONDUIT    462.61     0  03:03      0.91    0.60    0.62
  WS02004407WS02004409 CONDUIT    464.18     0  03:02      1.40    0.16    0.44
  WS02004406WS02004407 CONDUIT    464.30     0  03:02      0.95    0.21    0.59
  WS02004405WS02004406 CONDUIT    464.60     0  03:01      0.76    0.92    0.91
  WS02004404WS02004405 CONDUIT    464.48     0  03:01      0.96    4.55    0.91
  WS02004403WS02004404 CONDUIT    464.22     0  03:01      0.85    0.34    0.88
  WS02004402WS02004403 CONDUIT    464.43     0  03:01      0.87    0.67    0.83
  WS02004139WS02001211 CONDUIT    286.17     0  07:34      0.69    0.36    0.52
  WS02004138WS02004139 CONDUIT    285.07     0  00:50      2.95    0.06    0.38
  WS02003067WS02003066 CONDUIT    460.51     0  03:05      1.11    0.15    0.40
  WS02001213WS02003059 CONDUIT    297.34     0  07:34      0.65    0.49    0.69
  WS02001212WS02001213 CONDUIT    295.48     0  07:34      1.19    0.46    0.38
  WS02001211WS02001212 CONDUIT    294.51     0  07:35      0.67    0.23    0.56
  WS02003072WS02003073 CONDUIT    715.19     0  03:14      1.57    1.54    0.42
  WS02003069WS02003072 CONDUIT    715.45     0  03:13      1.49    0.34    0.44
  WS02003060WS02003069 CONDUIT    715.61     0  03:13      1.75    0.28    0.39
  WS02003059WS02003060 CONDUIT    299.92     0  07:34      0.82    0.20    0.58
  HS02004901HS02004770 CONDUIT     10.25     0  02:15      0.05    0.04    0.32
  HS02004876HS02004881 CONDUIT     34.55     0  02:18      0.56    0.37    0.09
  HS02004870HS02004876 CONDUIT     27.44     0  02:18      0.39    0.02    0.10
  HS02004842HS02004848 CONDUIT      5.36     0  02:31      0.03    0.00    0.27
  HS02004837HS02004842 CONDUIT      5.55     0  02:31      0.42    0.00    0.29
  HS02004830HS02004837 CONDUIT     23.63     0  02:18      0.44    0.02    0.08
  HS02004824HS02004830 CONDUIT     23.78     0  02:19      0.48    0.03    0.07
  HS02004817HS02004824 CONDUIT     38.12     0  02:21      0.17    0.02    0.40
  HS02004770HS02004777 CONDUIT     52.32     0  02:14      0.23    0.10    0.33
  HS02004799HS02004480 CONDUIT    129.42     0  02:16      0.59    0.16    0.31
  HS02004792HS02004799 CONDUIT    118.28     0  02:16      0.68    0.07    0.25
  HS02004788HS02004792 CONDUIT     68.86     0  02:17      0.83    0.05    0.12
  HS02004785HS02004788 CONDUIT     51.94     0  02:17      0.51    0.39    0.14
  HS02004777HS02004785 CONDUIT     51.88     0  02:16      0.27    0.06    0.27
  HS02004480HS02004478 CONDUIT    152.75     0  02:17      0.96    0.64    0.23
  HS02004479HS02004480 CONDUIT     23.89     0  02:20      0.15    0.02    0.31
  HS02004862HS02004870 CONDUIT     20.00     0  02:19      0.47    0.02    0.06
  HS02004848HS02004852 CONDUIT      8.04     0  02:18      0.31    0.01    0.04
  HS02004856HS02004862 CONDUIT     13.54     0  02:19      0.34    0.01    0.06
  HS02004852HS02004856 CONDUIT      8.00     0  02:20      0.12    0.01    0.09
  HS02004802HS02004478 CONDUIT     53.03     0  02:22      0.30    0.05    0.25
  HS02004478WS02006287 CONDUIT    204.39     0  02:18      1.31    0.06    0.17
  HS02004817HS02004807 CONDUIT     39.27     0  02:23      0.11    0.02    0.51
  HS02004807HS02004802 CONDUIT     52.64     0  02:21      0.25    0.10    0.30
  YS02001759YS02001757 CONDUIT    216.84     0  02:58      0.28    0.15    1.00
  YS02001762YS02001759 CONDUIT    122.90     0  02:58      0.17    0.14    1.00
  YS02001765YS02001762 CONDUIT    124.28     0  03:00      0.23    0.12    1.00
  YS02001770YS02001767 CONDUIT    140.56     0  02:59      0.34    0.56    1.00
  YS02001774YS02001770 CONDUIT     62.25     0  03:00      0.14    0.04    1.00
  YS02001779YS02001774 CONDUIT     57.45     0  04:22      0.07    0.03    1.00
  YS02001649YS02001757 CONDUIT    325.01     0  03:02      0.41    0.20    1.00
  YS02001767YS02001765 CONDUIT    121.51     0  03:04      0.26    0.15    1.00
  YS02006561YS02001783 CONDUIT    317.11     0  02:56      1.79    0.16    0.38
  YS02001783YS02001784 CONDUIT    317.11     0  02:56      1.24    0.44    0.51
  YS02001784YS02001785 CONDUIT    318.15     0  02:56      1.32    0.74    0.48
  YS02001788YS02001790 CONDUIT    318.26     0  02:57      1.88    0.23    0.37
  YS02001790YS02001791 CONDUIT    318.41     0  02:57      2.22    0.35    0.34
  YS02001791YS02001793 CONDUIT    335.92     0  03:01      4.41    0.14    0.27
  YS02001910YS02001907 CONDUIT     98.95     0  03:01      0.49    0.06    0.74
  YS02001786YS02001788 CONDUIT    318.20     0  02:56      1.75    0.61    0.39
  YS02001915YS02001910 CONDUIT     98.86     0  03:01      0.44    0.05    0.53
  YS02001918YS02001915 CONDUIT     33.36     0  03:03      0.44    0.02    0.26
  YS02001923YS02001920 CONDUIT     30.53     0  03:02      0.45    0.01    0.14
  YS02001926YS02001923 CONDUIT     30.49     0  03:01      0.49    0.04    0.13
  YS02001929YS02001926 CONDUIT     30.51     0  03:01      0.52    0.01    0.13
  YS02001920YS02001918 CONDUIT     33.37     0  03:02      0.46    0.03    0.15
  YS02001629YS02163301 CONDUIT    107.92     0  03:05      0.14    0.13    1.00
  YS02001619YS02001622 CONDUIT     87.51     0  02:59      0.66    0.13    0.86
  YS02001622YS02001625 CONDUIT    107.38     0  05:05      0.25    0.06    0.93
  YS02001625YS02001629 CONDUIT    104.28     0  05:05      0.25    0.05    0.93
  YS02163301YS02001633 CONDUIT    100.54     0  03:06      0.13    0.09    1.00
  YS02163601YS02164001 CONDUIT    164.31     0  03:05      0.21    0.15    1.00
  YS02164001YS02001641 CONDUIT    154.38     0  03:01      0.20    0.21    1.00
  YS02001641YS02001644 CONDUIT    157.51     0  03:04      0.20    0.51    1.00
  YS02001647YS02001649 CONDUIT    233.02     0  02:56      0.31    0.12    1.00
  YS02006553YS02006556 CONDUIT    216.47     0  03:02      0.31    0.19    0.82
  YS02006556YS02006558 CONDUIT    216.69     0  03:02      0.31    0.17    0.85
  YSB6556YSB1171       CONDUIT     12.91     0  02:19      0.06    0.01    0.57
  YS02001907YS02006553 CONDUIT    216.15     0  03:02      0.26    0.25    0.93
  YS02006558YS02006561 CONDUIT    317.11     0  02:55      2.29    0.70    0.49
  YS02001633YS02163601 CONDUIT    156.60     0  03:04      0.20    0.16    1.00
  YS02001644YS02001647 CONDUIT    234.09     0  03:04      0.31    0.14    1.00
  YS02001745YS02001748 CONDUIT    150.16     0  05:08      1.40    0.06    0.45
  YS02001748YS02001751 CONDUIT    172.70     0  05:06      1.09    0.09    0.80
  YS02001751YS02001754 CONDUIT    104.16     0  04:16      0.97    0.05    0.97
  YS02001754YS02001757 CONDUIT    128.75     0  03:01      0.33    0.05    1.00
  YS02001882YS02001884 CONDUIT      4.09     0  02:08      0.06    0.00    0.47
  YS02001884YS02001887 CONDUIT     11.64     0  02:08      0.06    0.02    0.56
  YS02001890YS02001895 CONDUIT    119.49     0  02:48      0.29    0.06    0.53
  YS02001895YS02001898 CONDUIT    119.40     0  02:48      0.49    0.21    0.39
  YS02001898YS02001901 CONDUIT    119.28     0  02:49      0.33    0.08    0.47
  YS02001901YS02001904 CONDUIT    118.71     0  02:51      0.29    0.18    0.52
  YS02001904YS02001907 CONDUIT    118.90     0  02:52      0.21    0.04    0.68
  YS02001887YS02001890 CONDUIT    119.94     0  02:45      0.24    0.21    0.61
  YS02001652YS02001649 CONDUIT    137.96     0  03:07      0.33    0.07    1.00
  YS02001655YS02001652 CONDUIT    113.46     0  02:46      1.05    0.06    0.99
  YS02001658YS02001655 CONDUIT    154.39     0  03:21      1.26    0.07    0.79
  YS02001661YS02001658 CONDUIT    144.66     0  04:57      1.45    0.06    0.46
  YS02001664YS02001661 CONDUIT     85.46     0  02:46      1.11    0.03    0.22
  YSB1154YSB6556       CONDUIT     12.71     0  02:18      0.19    0.02    0.46
  YSB1174YSB1171       CONDUIT     11.84     0  02:11      0.06    0.02    0.58
  YSB1171HS02004479    CONDUIT     23.66     0  02:18      0.54    0.02    0.45
  HS02004881HS02006253 CONDUIT     38.69     0  02:18      1.66    0.01    0.22
  YS02001793JiankangQianchi CONDUIT    542.91     0  03:01     11.68    0.04    0.61
  YS02001757CaochengTiaoxuchi CONDUIT    538.86     0  03:02      1.07    0.24    0.88
  WSF200WS02003060     CONDUIT    460.11     0  03:05      1.82    0.10    0.30
  1                    CONDUIT    716.48     0  03:15      3.04    0.25    0.34
  2                    CONDUIT     67.49     0  04:30      4.34    0.16    0.27
  3                    CONDUIT    496.66     0  03:50      9.80    0.79    0.68
  4                    CONDUIT      0.00     0  00:00      0.00    0.00    0.00
  CC-Pump-1            PUMP       200.00     0  02:50              1.00
  CC-Pump-2            PUMP       200.00     0  03:40              1.00
  JK-Pump-1            PUMP       300.00     0  04:10              1.00
  JK-Pump-2            PUMP       300.00     0  03:00              1.00
  XR-Pump-1            PUMP        95.00     0  00:00              1.00
  XR-Pump-2            PUMP        95.00     0  00:50              1.00
  XR-Pump-3            PUMP        95.00     0  00:40              1.00
  XR-Pump-4            PUMP        95.00     0  00:00              1.00
  
  
  ***************************
  Flow Classification Summary
  ***************************
  
  -------------------------------------------------------------------------------------
                      Adjusted    ---------- Fraction of Time in Flow Class ---------- 
                       /Actual         Up    Down  Sub   Sup   Up    Down  Norm  Inlet 
  Conduit               Length    Dry  Dry   Dry   Crit  Crit  Crit  Crit  Ltd   Ctrl  
  -------------------------------------------------------------------------------------
  WS02003066WSF200        1.00   0.05  0.00  0.00  0.00  0.95  0.00  0.00  0.83  0.00
  WS02006287WS02006284    1.00   0.04  0.02  0.00  0.72  0.23  0.00  0.00  0.77  0.00
  WS02006284WS02006280    1.00   0.05  0.00  0.00  0.00  0.00  0.00  0.95  0.00  0.00
  WS02006280WS02006229    1.00   0.05  0.00  0.00  0.00  0.00  0.00  0.95  0.00  0.00
  WS02006229WS02006228    1.00   0.00  0.00  0.00  1.00  0.00  0.00  0.00  0.01  0.00
  WS02006256WS02006235    1.00   0.00  0.00  0.00  1.00  0.00  0.00  0.00  0.00  0.00
  WS02006253WS02006251    1.00   0.03  0.02  0.00  0.96  0.00  0.00  0.00  0.00  0.00
  WS02006252WS02006251    1.00   0.09  0.00  0.00  0.00  0.00  0.91  0.00  0.00  0.00
  WS02006251WS02006249    1.00   0.00  0.00  0.00  1.00  0.00  0.00  0.00  0.36  0.00
  WS02006249WS02006248    1.00   0.00  0.00  0.00  0.79  0.00  0.20  0.00  0.00  0.00
  WS02006248WS02006247    1.00   0.00  0.00  0.00  0.97  0.00  0.00  0.02  0.29  0.00
  WS02006247WS02006245    1.00   0.00  0.00  0.00  0.97  0.00  0.00  0.02  0.00  0.00
  WS02006245WS02006243    1.00   0.01  0.00  0.00  0.94  0.00  0.00  0.06  0.02  0.00
  WS02006243WS02006242    1.00   0.01  0.00  0.00  0.99  0.00  0.00  0.00  0.24  0.00
  WS02006242WS02006240    1.00   0.01  0.00  0.00  0.99  0.00  0.00  0.00  0.00  0.00
  WS02006240WS02006239    1.00   0.01  0.00  0.00  0.96  0.00  0.00  0.04  0.01  0.00
  WS02006239WS02006238    1.00   0.00  0.00  0.00  1.00  0.00  0.00  0.00  0.02  0.00
  WS02006238WS02006235    1.00   0.00  0.00  0.00  1.00  0.00  0.00  0.00  0.00  0.00
  WS02006235WS02006234    1.00   0.00  0.00  0.00  0.96  0.00  0.04  0.00  0.00  0.00
  WS02006234WS02006232    1.00   0.00  0.00  0.00  0.99  0.00  0.00  0.00  0.08  0.00
  WS02006232WS02006231    1.00   0.00  0.00  0.00  0.99  0.00  0.00  0.00  0.00  0.00
  WS02006231WS02006230    1.00   0.01  0.00  0.00  0.41  0.00  0.58  0.00  0.00  0.00
  WS02006230WS02006229    1.00   0.00  0.00  0.00  0.99  0.00  0.00  0.01  0.00  0.00
  WS02006228WS02006109    1.00   0.00  0.00  0.00  1.00  0.00  0.00  0.00  0.01  0.00
  WS02006116WS02004401    1.00   0.03  0.00  0.00  0.97  0.00  0.00  0.00  0.00  0.00
  WS02006115WS02006116    1.00   0.03  0.00  0.00  0.97  0.00  0.00  0.01  0.00  0.00
  WS02006113WS02006111    1.00   0.01  0.00  0.00  0.00  0.98  0.00  0.00  0.16  0.00
  WS02006112WS02006115    1.00   0.02  0.01  0.00  0.97  0.00  0.00  0.00  0.00  0.00
  WS02006111WS02006112    1.00   0.02  0.00  0.00  0.98  0.00  0.00  0.00  0.95  0.00
  WS02006110WS02006113    1.00   0.00  0.01  0.00  0.99  0.00  0.00  0.00  0.00  0.00
  WS02006109WS02006110    1.00   0.00  0.00  0.00  1.00  0.00  0.00  0.00  0.00  0.00
  WS02004411WS02004412    1.00   0.04  0.00  0.00  0.96  0.00  0.00  0.00  0.00  0.00
  WS02004401WS02004402    1.00   0.03  0.00  0.00  0.97  0.00  0.00  0.00  0.00  0.00
  WS02004413WS02003067    1.00   0.04  0.01  0.00  0.00  0.00  0.96  0.00  0.00  0.00
  WS02004412WS02004413    1.00   0.04  0.00  0.00  0.96  0.00  0.00  0.00  0.01  0.00
  WS02004410WS02004411    1.00   0.03  0.00  0.00  0.97  0.00  0.00  0.00  0.00  0.00
  WS02004409WS02004410    1.00   0.03  0.00  0.00  0.97  0.00  0.00  0.00  0.02  0.00
  WS02004407WS02004409    1.00   0.03  0.00  0.00  0.96  0.00  0.00  0.00  0.92  0.00
  WS02004406WS02004407    1.00   0.00  0.03  0.00  0.97  0.00  0.00  0.00  0.00  0.00
  WS02004405WS02004406    1.00   0.00  0.00  0.00  1.00  0.00  0.00  0.00  0.03  0.00
  WS02004404WS02004405    1.00   0.00  0.00  0.00  1.00  0.00  0.00  0.00  0.00  0.00
  WS02004403WS02004404    1.00   0.00  0.03  0.00  0.97  0.00  0.00  0.00  0.00  0.00
  WS02004402WS02004403    1.00   0.03  0.00  0.00  0.97  0.00  0.00  0.00  0.00  0.00
  WS02004139WS02001211    1.00   0.00  0.00  0.00  1.00  0.00  0.00  0.00  0.00  0.00
  WS02004138WS02004139    1.00   0.00  0.00  0.00  1.00  0.00  0.00  0.00  1.00  0.00
  WS02003067WS02003066    1.00   0.04  0.00  0.00  0.95  0.00  0.00  0.00  0.00  0.00
  WS02001213WS02003059    1.00   0.00  0.00  0.00  1.00  0.00  0.00  0.00  0.00  0.00
  WS02001212WS02001213    1.00   0.00  0.00  0.00  0.72  0.00  0.27  0.00  0.00  0.00
  WS02001211WS02001212    1.00   0.00  0.00  0.00  1.00  0.00  0.00  0.00  0.00  0.00
  WS02003072WS02003073    1.00   0.00  0.00  0.00  0.00  0.00  0.00  1.00  0.00  0.00
  WS02003069WS02003072    1.00   0.00  0.00  0.00  1.00  0.00  0.00  0.00  0.42  0.00
  WS02003060WS02003069    1.00   0.00  0.00  0.00  1.00  0.00  0.00  0.00  0.25  0.00
  WS02003059WS02003060    1.00   0.00  0.00  0.00  1.00  0.00  0.00  0.00  0.01  0.00
  HS02004901HS02004770    1.00   0.04  0.00  0.00  0.95  0.00  0.00  0.00  0.03  0.00
  HS02004876HS02004881    1.00   0.00  0.00  0.00  1.00  0.00  0.00  0.00  0.00  0.00
  HS02004870HS02004876    1.00   0.00  0.00  0.00  1.00  0.00  0.00  0.00  0.95  0.00
  HS02004842HS02004848    1.00   0.00  0.05  0.00  0.95  0.00  0.00  0.00  0.69  0.00
  HS02004837HS02004842    1.00   0.00  0.00  0.00  1.00  0.00  0.00  0.00  0.11  0.00
  HS02004830HS02004837    1.00   0.00  0.00  0.00  1.00  0.00  0.00  0.00  0.99  0.00
  HS02004824HS02004830    1.00   0.00  0.00  0.00  1.00  0.00  0.00  0.00  0.00  0.00
  HS02004817HS02004824    1.00   0.00  0.00  0.00  1.00  0.00  0.00  0.00  1.00  0.00
  HS02004770HS02004777    1.00   0.00  0.05  0.00  0.95  0.00  0.00  0.00  0.07  0.00
  HS02004799HS02004480    1.00   0.00  0.01  0.00  0.94  0.00  0.05  0.00  0.00  0.00
  HS02004792HS02004799    1.00   0.00  0.00  0.00  1.00  0.00  0.00  0.00  0.98  0.00
  HS02004788HS02004792    1.00   0.00  0.00  0.00  1.00  0.00  0.00  0.00  0.98  0.00
  HS02004785HS02004788    1.00   0.00  0.00  0.00  1.00  0.00  0.00  0.00  0.00  0.00
  HS02004777HS02004785    1.00   0.00  0.00  0.00  1.00  0.00  0.00  0.00  0.21  0.00
  HS02004480HS02004478    1.00   0.05  0.00  0.00  0.74  0.00  0.00  0.21  0.00  0.00
  HS02004479HS02004480    1.00   0.01  0.00  0.00  0.99  0.00  0.00  0.00  0.16  0.00
  HS02004862HS02004870    1.00   0.00  0.00  0.00  1.00  0.00  0.00  0.00  0.05  0.00
  HS02004848HS02004852    1.00   0.05  0.00  0.00  0.95  0.00  0.00  0.00  0.71  0.00
  HS02004856HS02004862    1.00   0.00  0.07  0.00  0.93  0.00  0.00  0.00  0.74  0.00
  HS02004852HS02004856    1.00   0.05  0.01  0.00  0.95  0.00  0.00  0.00  0.82  0.00
  HS02004802HS02004478    1.00   0.05  0.01  0.00  0.95  0.00  0.00  0.00  0.00  0.00
  HS02004478WS02006287    1.00   0.06  0.00  0.00  0.89  0.06  0.00  0.00  0.77  0.00
  HS02004817HS02004807    1.00   0.00  0.05  0.00  0.95  0.00  0.00  0.00  0.00  0.00
  HS02004807HS02004802    1.00   0.05  0.00  0.00  0.95  0.00  0.00  0.00  0.01  0.00
  YS02001759YS02001757    1.00   0.00  0.00  0.00  1.00  0.00  0.00  0.00  0.17  0.00
  YS02001762YS02001759    1.00   0.00  0.00  0.00  1.00  0.00  0.00  0.00  0.05  0.00
  YS02001765YS02001762    1.00   0.00  0.00  0.00  1.00  0.00  0.00  0.00  0.22  0.00
  YS02001770YS02001767    1.00   0.00  0.00  0.00  1.00  0.00  0.00  0.00  0.00  0.00
  YS02001774YS02001770    1.00   0.00  0.05  0.00  0.95  0.00  0.00  0.00  0.06  0.00
  YS02001779YS02001774    1.00   0.00  0.00  0.00  1.00  0.00  0.00  0.00  0.26  0.00
  YS02001649YS02001757    1.00   0.00  0.00  0.00  1.00  0.00  0.00  0.00  0.19  0.00
  YS02001767YS02001765    1.00   0.00  0.00  0.00  1.00  0.00  0.00  0.00  0.01  0.00
  YS02006561YS02001783    1.00   0.07  0.00  0.00  0.00  0.93  0.00  0.00  0.73  0.00
  YS02001783YS02001784    1.00   0.00  0.07  0.00  0.93  0.00  0.00  0.00  0.00  0.00
  YS02001784YS02001785    1.00   0.00  0.00  0.00  1.00  0.00  0.00  0.00  0.25  0.00
  YS02001788YS02001790    1.00   0.00  0.00  0.00  0.07  0.93  0.00  0.00  0.77  0.00
  YS02001790YS02001791    1.00   0.00  0.00  0.00  0.00  1.00  0.00  0.00  0.55  0.00
  YS02001791YS02001793    1.00   0.00  0.00  0.00  0.00  1.00  0.00  0.00  0.00  0.00
  YS02001910YS02001907    1.00   0.00  0.00  0.00  0.99  0.00  0.00  0.00  0.13  0.00
  YS02001786YS02001788    1.00   0.00  0.00  0.00  0.08  0.92  0.00  0.00  0.00  0.00
  YS02001915YS02001910    1.00   0.00  0.00  0.00  1.00  0.00  0.00  0.00  0.24  0.00
  YS02001918YS02001915    1.00   0.00  0.00  0.00  1.00  0.00  0.00  0.00  0.81  0.00
  YS02001923YS02001920    1.00   0.00  0.00  0.00  1.00  0.00  0.00  0.00  1.00  0.00
  YS02001926YS02001923    1.00   0.00  0.03  0.00  0.00  0.00  0.97  0.00  0.00  0.00
  YS02001929YS02001926    1.00   0.00  0.05  0.00  0.95  0.00  0.00  0.00  0.87  0.00
  YS02001920YS02001918    1.00   0.00  0.00  0.00  1.00  0.00  0.00  0.00  0.00  0.00
  YS02001629YS02163301    1.00   0.06  0.00  0.00  0.93  0.00  0.00  0.00  0.00  0.00
  YS02001619YS02001622    1.00   0.04  0.00  0.00  0.96  0.00  0.00  0.00  0.00  0.00
  YS02001622YS02001625    1.00   0.05  0.00  0.00  0.95  0.00  0.00  0.00  0.13  0.00
  YS02001625YS02001629    1.00   0.05  0.03  0.00  0.91  0.00  0.02  0.00  0.00  0.00
  YS02163301YS02001633    1.00   0.00  0.06  0.00  0.94  0.00  0.00  0.00  0.00  0.00
  YS02163601YS02164001    1.00   0.00  0.04  0.00  0.96  0.00  0.00  0.00  0.00  0.00
  YS02164001YS02001641    1.00   0.00  0.03  0.00  0.96  0.00  0.00  0.00  0.07  0.00
  YS02001641YS02001644    1.00   0.00  0.00  0.00  1.00  0.00  0.00  0.00  0.00  0.00
  YS02001647YS02001649    1.00   0.00  0.07  0.00  0.93  0.00  0.00  0.00  0.01  0.00
  YS02006553YS02006556    1.00   0.00  0.00  0.00  1.00  0.00  0.00  0.00  0.03  0.00
  YS02006556YS02006558    1.00   0.00  0.00  0.00  1.00  0.00  0.00  0.00  0.00  0.00
  YSB6556YSB1171          1.00   0.02  0.03  0.00  0.96  0.00  0.00  0.00  0.00  0.00
  YS02001907YS02006553    1.00   0.00  0.00  0.00  1.00  0.00  0.00  0.00  0.00  0.00
  YS02006558YS02006561    1.00   0.07  0.00  0.00  0.00  0.93  0.00  0.00  0.72  0.00
  YS02001633YS02163601    1.00   0.00  0.00  0.00  1.00  0.00  0.00  0.00  0.20  0.00
  YS02001644YS02001647    1.00   0.00  0.07  0.00  0.93  0.00  0.00  0.00  0.00  0.00
  YS02001745YS02001748    1.00   0.00  0.00  0.00  0.87  0.02  0.00  0.12  0.23  0.00
  YS02001748YS02001751    1.00   0.00  0.00  0.00  0.97  0.03  0.00  0.00  0.24  0.00
  YS02001751YS02001754    1.00   0.00  0.00  0.00  0.92  0.00  0.00  0.08  0.02  0.00
  YS02001754YS02001757    1.00   0.00  0.00  0.00  1.00  0.00  0.00  0.00  0.26  0.00
  YS02001882YS02001884    1.00   0.06  0.00  0.00  0.94  0.00  0.00  0.00  0.00  0.00
  YS02001884YS02001887    1.00   0.03  0.01  0.00  0.96  0.00  0.00  0.00  0.00  0.00
  YS02001890YS02001895    1.00   0.00  0.06  0.00  0.93  0.00  0.00  0.00  0.00  0.00
  YS02001895YS02001898    1.00   0.07  0.00  0.00  0.93  0.00  0.01  0.00  0.00  0.00
  YS02001898YS02001901    1.00   0.06  0.00  0.00  0.93  0.00  0.00  0.00  0.02  0.00
  YS02001901YS02001904    1.00   0.06  0.00  0.00  0.94  0.00  0.00  0.00  0.00  0.00
  YS02001904YS02001907    1.00   0.00  0.06  0.00  0.94  0.00  0.00  0.00  0.00  0.00
  YS02001887YS02001890    1.00   0.00  0.00  0.00  0.99  0.00  0.01  0.00  0.00  0.00
  YS02001652YS02001649    1.00   0.00  0.00  0.00  1.00  0.00  0.00  0.00  0.26  0.00
  YS02001655YS02001652    1.00   0.00  0.00  0.00  0.92  0.00  0.00  0.08  0.02  0.00
  YS02001658YS02001655    1.00   0.00  0.06  0.00  0.91  0.03  0.00  0.00  0.11  0.00
  YS02001661YS02001658    1.00   0.06  0.00  0.00  0.87  0.08  0.00  0.00  0.19  0.00
  YS02001664YS02001661    1.00   0.04  0.00  0.00  0.77  0.19  0.00  0.00  0.86  0.00
  YSB1154YSB6556          1.00   0.04  0.00  0.00  0.96  0.00  0.00  0.00  0.02  0.00
  YSB1174YSB1171          1.00   0.03  0.01  0.00  0.96  0.00  0.00  0.00  0.00  0.00
  YSB1171HS02004479       1.00   0.01  0.00  0.00  0.97  0.00  0.00  0.01  0.13  0.00
  HS02004881HS02006253    1.00   0.02  0.00  0.00  0.62  0.01  0.00  0.34  0.44  0.00
  YS02001793JiankangQianchi    1.00   0.00  0.00  0.00  0.60  0.40  0.00  0.00  0.56  0.00
  YS02001757CaochengTiaoxuchi    1.00   0.00  0.09  0.00  0.91  0.00  0.00  0.00  0.00  0.00
  WSF200WS02003060        1.00   0.00  0.05  0.00  0.60  0.36  0.00  0.00  0.33  0.00
  1                       1.00   0.00  0.00  0.00  0.00  1.00  0.00  0.00  0.38  0.00
  2                       1.00   0.75  0.00  0.00  0.00  0.25  0.00  0.00  0.06  0.00
  3                       1.00   0.36  0.00  0.00  0.00  0.64  0.00  0.00  0.16  0.00
  4                       1.00   1.00  0.00  0.00  0.00  0.00  0.00  0.00  0.00  0.00
  
  
  *************************
  Conduit Surcharge Summary
  *************************
  
  ----------------------------------------------------------------------------
                                                           Hours        Hours 
                         --------- Hours Full --------   Above Full   Capacity
  Conduit                Both Ends  Upstream  Dnstream   Normal Flow   Limited
  ----------------------------------------------------------------------------
  WS02006229WS02006228        0.59      0.78      0.59      2.89         0.58
  WS02006256WS02006235        5.71      5.71      6.97      2.92         0.01
  WS02006252WS02006251        0.57      0.57      1.59      1.33         0.01
  WS02006251WS02006249        0.01      0.01      0.01      0.54         0.01
  WS02006249WS02006248        0.01      0.01      0.01      2.94         0.01
  WS02006247WS02006245        0.01      0.01      0.01      3.50         0.01
  WS02006245WS02006243        0.01      0.01      0.01      0.04         0.01
  WS02006243WS02006242        0.01      0.01      0.09      0.01         0.01
  WS02006242WS02006240        0.01      0.01      0.52      1.60         0.01
  WS02006240WS02006239        0.01      0.01      0.01      0.15         0.01
  WS02006239WS02006238        0.40      0.40      0.52      0.19         0.01
  WS02006238WS02006235        0.34      0.34      0.81      0.01         0.01
  WS02006235WS02006234        0.01      0.01      0.22      5.62         0.01
  WS02006234WS02006232        0.01      0.01      0.88      0.01         0.01
  WS02006232WS02006231        0.01      0.01      0.88      0.01         0.01
  WS02006231WS02006230        0.01      0.01      0.01      5.82         0.01
  WS02006230WS02006229        1.53      2.34      1.53      5.91         1.51
  WS02006228WS02006109        0.67      1.15      0.67      3.98         0.67
  WS02006111WS02006112        0.01      0.01      3.03      0.01         0.01
  WS02006110WS02006113        0.01      0.01      0.97      0.01         0.01
  WS02006109WS02006110        0.01      0.01      1.16      0.01         0.01
  WS02004404WS02004405        0.01      0.01      0.01      5.61         0.01
  WS02003072WS02003073        0.01      0.01      0.01      3.33         0.01
  YS02001759YS02001757        5.14      5.14      5.30      0.01         0.01
  YS02001762YS02001759        5.06      5.06      5.14      0.01         0.02
  YS02001765YS02001762        4.83      4.83      5.06      0.01         0.01
  YS02001770YS02001767        4.50      4.50      4.54      0.01         0.74
  YS02001774YS02001770        4.41      4.41      5.02      0.01         0.01
  YS02001779YS02001774        1.40      1.40      5.02      0.01         0.01
  YS02001649YS02001757        5.09      5.09      5.30      0.01         0.01
  YS02001767YS02001765        4.54      4.54      4.83      0.01         0.02
  YS02001629YS02163301        4.30      4.30      4.44      0.01         0.01
  YS02001622YS02001625        0.01      0.01      3.42      0.01         0.01
  YS02001625YS02001629        0.01      0.01      3.42      0.01         0.01
  YS02163301YS02001633        4.44      4.44      4.92      0.01         0.01
  YS02163601YS02164001        4.84      4.84      5.08      0.01         0.01
  YS02164001YS02001641        4.84      4.84      4.97      0.01         0.01
  YS02001641YS02001644        4.97      4.97      4.99      0.01         0.40
  YS02001647YS02001649        3.34      3.34      5.09      0.01         0.01
  YS02001633YS02163601        4.64      4.64      5.08      0.01         0.01
  YS02001644YS02001647        3.34      3.34      4.99      0.01         0.01
  YS02001751YS02001754        0.01      0.01      2.30      0.01         0.01
  YS02001754YS02001757        3.37      3.37      5.30      0.01         0.01
  YS02001652YS02001649        3.56      3.56      5.09      0.01         0.01
  YS02001655YS02001652        0.01      0.01      3.08      0.01         0.01
  YS02001793JiankangQianchi        0.01      0.01      2.24      0.01         0.01
  YS02001757CaochengTiaoxuchi        0.01      0.01      5.30      0.01         0.01
  
  
  ***************
  Pumping Summary
  ***************
  
  ---------------------------------------------------------------------------------------------------------
                                                  Min       Avg       Max     Total     Power    % Time Off
                        Percent   Number of      Flow      Flow      Flow    Volume     Usage    Pump Curve
  Pump                 Utilized   Start-Ups       LPS       LPS       LPS  10^6 ltr     Kw-hr    Low   High
  ---------------------------------------------------------------------------------------------------------
  CC-Pump-1               51.42           5      0.00    123.79    200.00     1.741      5.15    0.0   12.3
  CC-Pump-2               44.66           7      0.00    139.73    200.00     1.680      4.86    0.0    9.5
  JK-Pump-1               65.94           9      0.00    135.64    300.00     1.889     32.83    0.0    0.0
  JK-Pump-2               53.19           6      0.00    148.72    300.00     1.641     25.44    0.0    0.0
  XR-Pump-1               76.59           7      0.00     58.30     95.00     1.311      7.48    0.0    0.0
  XR-Pump-2               72.32           9      0.00     62.50     95.00     1.225      6.87    0.0    0.0
  XR-Pump-3               65.94           7      0.00     64.28     95.00     1.168      6.93    0.0    0.0
  XR-Pump-4               63.82           8      0.00     61.13     95.00     1.112      6.45    0.0    0.0
  

  Analysis begun on:  Thu Jan  6 00:30:44 2022
  Analysis ended on:  Thu Jan  6 00:30:47 2022
  Total elapsed time: 00:00:03