
  EPA STORM WATER MANAGEMENT MODEL - VERSION 5.1 (Build 5.3.0.dev0)
  --------------------------------------------------------------

  WARNING 04: minimum elevation drop used for Conduit WS02004404WS02004405
  WARNING 03: negative offset ignored for Link YS02001904YS02001907
  
  *********************************************************
  NOTE: The summary statistics displayed in this report are
  based on results found at every computational time step,  
  not just on results from each reporting time step.
  *********************************************************
  
  ****************
  Analysis Options
  ****************
  Flow Units ............... LPS
  Process Models:
    Rainfall/Runoff ........ YES
    RDII ................... NO
    Snowmelt ............... NO
    Groundwater ............ NO
    Flow Routing ........... YES
    Ponding Allowed ........ NO
    Water Quality .......... NO
  Infiltration Method ...... HORTON
  Flow Routing Method ...... DYNWAVE
  Surcharge Method ......... EXTRAN
  Starting Date ............ 08/28/2015 08:00:00
  Ending Date .............. 08/28/2015 15:50:00
  Antecedent Dry Days ...... 8.0
  Report Time Step ......... 00:01:00
  Wet Time Step ............ 00:01:00
  Dry Time Step ............ 00:01:00
  Routing Time Step ........ 5.00 sec
  Variable Time Step ....... YES
  Maximum Trials ........... 8
  Number of Threads ........ 4
  Head Tolerance ........... 0.001500 m
  
  
  **************************        Volume         Depth
  Runoff Quantity Continuity     hectare-m            mm
  **************************     ---------       -------
  Total Precipitation ......         2.005         4.390
  Evaporation Loss .........         0.000         0.000
  Infiltration Loss ........         0.496         1.086
  Surface Runoff ...........         0.697         1.526
  Final Storage ............         0.812         1.779
  Continuity Error (%) .....        -0.017
  
  
  **************************        Volume        Volume
  Flow Routing Continuity        hectare-m      10^6 ltr
  **************************     ---------     ---------
  Dry Weather Inflow .......         0.616         6.165
  Wet Weather Inflow .......         0.697         6.966
  Groundwater Inflow .......         0.000         0.000
  RDII Inflow ..............         0.000         0.000
  External Inflow ..........         0.102         1.024
  External Outflow .........         1.115        11.147
  Flooding Loss ............         0.160         1.595
  Evaporation Loss .........         0.000         0.000
  Exfiltration Loss ........         0.000         0.000
  Initial Stored Volume ....         0.076         0.761
  Final Stored Volume ......         0.271         2.713
  Continuity Error (%) .....        -3.622
  
  
  *************************
  Highest Continuity Errors
  *************************
  Node HS02004842 (35.57%)
  Node YS02001884 (29.79%)
  Node JK-storage (-23.06%)
  Node YSB1171 (9.96%)
  Node YS02001774 (8.84%)
  
  
  ***************************
  Time-Step Critical Elements
  ***************************
  Link WS02006252WS02006251 (70.48%)
  Link 3 (18.77%)
  Link WS02006238WS02006235 (2.77%)
  Link WS02006280WS02006229 (2.46%)
  Link YS02001793JiankangQianchi (1.16%)
  
  
  ********************************
  Highest Flow Instability Indexes
  ********************************
  Link WS02006113WS02006111 (55)
  Link WS02006111WS02006112 (14)
  Link YS02001754YS02001757 (4)
  Link YS02001762YS02001759 (4)
  Link YS02001751YS02001754 (3)
  
  
  *************************
  Routing Time Step Summary
  *************************
  Minimum Time Step           :     0.48 sec
  Average Time Step           :     1.06 sec
  Maximum Time Step           :     5.00 sec
  Percent in Steady State     :    -0.00
  Average Iterations per Step :     2.06
  Percent Not Converging      :     0.63
  
  
  ***************************
  Subcatchment Runoff Summary
  ***************************
  
  ------------------------------------------------------------------------------------------------------------------------------
                            Total      Total      Total      Total     Imperv       Perv      Total       Total     Peak  Runoff
                           Precip      Runon       Evap      Infil     Runoff     Runoff     Runoff      Runoff   Runoff   Coeff
  Subcatchment                 mm         mm         mm         mm         mm         mm         mm    10^6 ltr      LPS
  ------------------------------------------------------------------------------------------------------------------------------
  sub0                       4.39       0.00       0.00       0.31       2.82       0.00       2.82        0.00     0.94   0.642
  sub1                       4.39       0.00       0.00       0.48       2.65       0.00       2.65        0.02     4.66   0.605
  sub2                       4.39       0.00       0.00       1.62       1.86       0.00       1.86        0.02     4.07   0.424
  sub3                       4.39       0.00       0.00       1.62       1.83       0.00       1.83        0.04     8.25   0.417
  sub4                       4.39       0.00       0.00       0.48       2.53       0.00       2.53        0.05     9.12   0.576
  sub5                       4.39       0.00       0.00       0.31       2.77       0.00       2.77        0.03     8.28   0.632
  sub7                       4.39       0.00       0.00       0.40       2.74       0.00       2.74        0.01     2.98   0.624
  sub8                       4.39       0.00       0.00       0.40       2.73       0.00       2.73        0.02     5.22   0.622
  sub9                       4.39       0.00       0.00       0.40       2.73       0.00       2.73        0.01     3.86   0.622
  sub10                      4.39       0.00       0.00       0.35       2.75       0.00       2.75        0.03     8.30   0.626
  sub11                      4.39       0.00       0.00       0.35       2.77       0.00       2.77        0.03     9.85   0.630
  sub12                      4.39       0.00       0.00       0.57       2.63       0.00       2.63        0.02     8.52   0.599
  sub14                      4.39       0.00       0.00       0.40       2.73       0.00       2.73        0.03     7.54   0.622
  sub15                      4.39       0.00       0.00       1.32       2.10       0.00       2.10        0.04    10.20   0.477
  sub16                      4.39       0.00       0.00       1.45       2.02       0.00       2.02        0.02     7.45   0.461
  sub17                      4.39       0.00       0.00       1.40       2.05       0.00       2.05        0.02     5.99   0.467
  sub22                      4.39       0.00       0.00       1.89       1.71       0.00       1.71        0.11    33.77   0.391
  sub23                      4.39       0.00       0.00       1.62       1.90       0.00       1.90        0.09    28.83   0.432
  sub60                      4.39       0.00       0.00       0.53       1.67       0.00       1.67        0.51    42.88   0.380
  sub61                      4.39       0.00       0.00       0.75       1.83       0.00       1.83        0.56    54.81   0.417
  sub62                      4.39       0.00       0.00       0.35       1.95       0.00       1.95        0.60    55.71   0.444
  sub63                      4.39       0.00       0.00       1.27       1.65       0.00       1.65        0.50    51.54   0.375
  sub64                      4.39       0.00       0.00       0.66       1.59       0.00       1.59        0.48    40.66   0.362
  sub65                      4.39       0.00       0.00       0.57       1.61       0.00       1.61        0.49    41.19   0.366
  sub66                      4.39       0.00       0.00       1.27       1.40       0.00       1.40        0.43    37.51   0.319
  sub67                      4.39       0.00       0.00       0.35       2.19       0.00       2.19        0.68    72.79   0.500
  sub68                      4.39       0.00       0.00       0.61       1.96       0.00       1.96        0.60    60.89   0.447
  sub69                      4.39       0.00       0.00       0.66       2.17       0.00       2.17        0.51    61.77   0.494
  sub70                      4.39       2.21       0.00       2.25       2.52       0.00       2.52        0.58    45.67   0.381
  sub71                      4.39       0.00       0.00       0.35       1.85       0.00       1.85        0.44    38.63   0.420
  sub72                      4.39       0.00       0.00       0.31       1.23       0.00       1.23        0.25    17.56   0.280
  sub73                      4.39       2.45       0.00       2.33       2.46       0.00       2.46        0.58    38.88   0.360
  sub74                      4.39       0.00       0.00       3.29       0.66       0.00       0.66        0.26    34.75   0.150
  
  
  ******************
  Node Depth Summary
  ******************
  
  ---------------------------------------------------------------------------------
                                 Average  Maximum  Maximum  Time of Max    Reported
                                   Depth    Depth      HGL   Occurrence   Max Depth
  Node                 Type       Meters   Meters   Meters  days hr:min      Meters
  ---------------------------------------------------------------------------------
  WS02001211           JUNCTION     0.58     0.74     5.58     0  02:33        0.74
  WS02001212           JUNCTION     0.31     0.44     5.51     0  02:34        0.44
  WS02001213           JUNCTION     0.54     0.67     5.43     0  02:35        0.67
  WS02003069           JUNCTION     0.36     0.47     5.05     0  05:52        0.47
  WS02003072           JUNCTION     0.43     0.54     4.91     0  05:53        0.54
  WS02003073           JUNCTION     0.25     0.32     4.39     0  05:53        0.32
  WS02003060           JUNCTION     0.32     0.42     5.35     0  05:52        0.42
  WS02003066           JUNCTION     0.20     0.27     5.82     0  03:23        0.27
  WS02003059           JUNCTION     0.60     0.72     5.41     0  02:35        0.72
  WS02003067           JUNCTION     0.52     0.65     5.97     0  03:22        0.65
  WS02004401           JUNCTION     0.59     0.75     6.75     0  03:19        0.75
  WS02004402           JUNCTION     0.63     0.78     6.74     0  03:19        0.78
  WS02004403           JUNCTION     0.65     0.80     6.73     0  03:19        0.80
  WS02004404           JUNCTION     0.73     0.88     6.73     0  03:19        0.88
  WS02004406           JUNCTION     0.74     0.88     6.71     0  03:19        0.88
  WS02004409           JUNCTION     0.41     0.57     6.34     0  03:21        0.57
  WS02004410           JUNCTION     0.43     0.59     6.31     0  03:22        0.59
  WS02004411           JUNCTION     0.45     0.60     6.28     0  03:22        0.60
  WS02004412           JUNCTION     0.47     0.62     6.26     0  03:22        0.62
  WS02004413           JUNCTION     0.63     0.78     6.25     0  03:22        0.78
  WS02004405           JUNCTION     0.72     0.88     6.73     0  03:19        0.88
  WS02006109           JUNCTION     0.67     0.85     7.47     0  03:14        0.85
  WS02006110           JUNCTION     0.68     0.84     7.42     0  03:14        0.84
  WS02006111           JUNCTION     0.19     0.26     6.96     0  03:16        0.25
  WS02006112           JUNCTION     0.75     0.93     6.82     0  03:18        0.93
  WS02006113           JUNCTION     0.29     0.40     7.29     0  03:15        0.40
  WS02006115           JUNCTION     0.48     0.64     6.78     0  03:18        0.64
  WS02006116           JUNCTION     0.56     0.73     6.77     0  03:19        0.73
  WS02006230           JUNCTION     0.60     0.87     7.61     0  03:14        0.87
  WS02006231           JUNCTION     0.40     0.59     7.71     0  03:14        0.59
  WS02006232           JUNCTION     0.53     0.73     7.77     0  03:14        0.73
  WS02006234           JUNCTION     0.44     0.67     7.83     0  03:14        0.67
  WS02006235           JUNCTION     0.47     0.71     7.87     0  03:14        0.70
  WS02006238           JUNCTION     0.49     0.73     7.88     0  03:14        0.73
  WS02006240           JUNCTION     0.38     0.65     7.94     0  03:14        0.65
  WS02006242           JUNCTION     0.44     0.71     7.98     0  03:14        0.71
  WS02006243           JUNCTION     0.31     0.60     8.02     0  05:34        0.60
  WS02006245           JUNCTION     0.30     0.57     8.06     0  05:30        0.57
  WS02006247           JUNCTION     0.32     0.60     8.10     0  05:31        0.60
  WS02006248           JUNCTION     0.28     0.54     8.13     0  05:31        0.54
  WS02006249           JUNCTION     0.32     0.58     8.17     0  05:30        0.58
  WS02006239           JUNCTION     0.44     0.70     7.91     0  03:14        0.70
  WS02006251           JUNCTION     0.30     0.60     8.27     0  05:30        0.59
  WS02006252           JUNCTION     0.28     0.59     8.83     0  02:50        0.58
  WS02006253           JUNCTION     0.33     0.63     8.27     0  05:30        0.62
  WS02006256           JUNCTION     0.91     1.12     8.06     0  03:14        1.12
  WS02004138           JUNCTION     0.12     0.19     7.44     0  02:30        0.19
  WS02004407           JUNCTION     0.19     0.26     6.57     0  03:20        0.26
  WS02006228           JUNCTION     0.65     0.87     7.52     0  03:14        0.86
  WS02006229           JUNCTION     0.62     0.85     7.54     0  03:14        0.85
  WS02006280           JUNCTION     0.05     0.12     8.39     0  02:22        0.12
  WS02006284           JUNCTION     0.34     0.44     8.84     0  02:22        0.44
  WS02006287           JUNCTION     0.07     0.17     9.12     0  02:22        0.17
  WSF200               JUNCTION     0.18     0.26     5.49     0  05:45        0.26
  HS02004901           JUNCTION     0.10     0.19    10.02     0  02:20        0.19
  HS02004881           JUNCTION     0.00     0.02     9.05     0  02:21        0.02
  HS02004876           JUNCTION     0.03     0.09     9.12     0  02:21        0.09
  HS02004870           JUNCTION     0.01     0.03     9.32     0  02:21        0.03
  HS02004862           JUNCTION     0.01     0.03     9.42     0  02:22        0.03
  HS02004856           JUNCTION     0.07     0.09     9.52     0  02:21        0.09
  HS02004852           JUNCTION     0.00     0.02     9.53     0  02:22        0.02
  HS02004848           JUNCTION     0.00     0.02     9.62     0  02:19        0.02
  HS02004842           JUNCTION     0.33     0.35     9.62     0  02:19        0.35
  HS02004837           JUNCTION     0.02     0.04     9.62     0  02:19        0.04
  HS02004830           JUNCTION     0.03     0.05     9.52     0  02:20        0.05
  HS02004824           JUNCTION     0.02     0.03     9.43     0  02:23        0.03
  HS02004817           JUNCTION     0.41     0.49     9.34     0  02:22        0.49
  HS02004807           JUNCTION     0.10     0.17     9.34     0  02:22        0.17
  HS02004802           JUNCTION     0.14     0.21     9.34     0  02:22        0.21
  HS02004799           JUNCTION     0.09     0.21     9.42     0  02:20        0.21
  HS02004792           JUNCTION     0.02     0.07     9.60     0  02:19        0.07
  HS02004788           JUNCTION     0.02     0.05     9.95     0  02:21        0.05
  HS02004785           JUNCTION     0.03     0.11    10.01     0  02:21        0.11
  HS02004777           JUNCTION     0.12     0.22    10.02     0  02:20        0.22
  HS02004770           JUNCTION     0.09     0.19    10.02     0  02:20        0.19
  HS02004480           JUNCTION     0.06     0.16     9.40     0  02:21        0.16
  HS02004479           JUNCTION     0.09     0.19     9.40     0  02:21        0.19
  HS02004478           JUNCTION     0.04     0.10     9.33     0  02:22        0.10
  YS02001745           JUNCTION     0.06     0.09     7.61     0  03:01        0.09
  YS02001748           JUNCTION     0.13     0.25     7.33     0  05:06        0.25
  YS02001751           JUNCTION     0.31     0.45     7.33     0  05:07        0.44
  YS02001754           JUNCTION     0.55     0.73     7.34     0  05:06        0.73
  YS02001762           JUNCTION     0.75     0.92     7.32     0  04:18        0.92
  YS02001765           JUNCTION     0.70     0.86     7.31     0  04:19        0.86
  YS02001767           JUNCTION     0.67     0.83     7.32     0  04:19        0.82
  YS02001770           JUNCTION     0.66     0.82     7.31     0  04:20        0.81
  YS02001774           JUNCTION     0.73     0.88     7.30     0  04:22        0.88
  YS02001779           JUNCTION     0.48     0.63     7.32     0  04:20        0.63
  YS02001882           JUNCTION     0.23     0.34     7.06     0  02:56        0.34
  YS02001884           JUNCTION     0.32     0.44     7.06     0  02:55        0.44
  YS02001759           JUNCTION     0.78     0.96     7.32     0  04:20        0.96
  YS02001887           JUNCTION     0.40     0.52     7.06     0  02:55        0.52
  YS02001890           JUNCTION     0.43     0.55     7.06     0  02:56        0.55
  YS02001898           JUNCTION     0.20     0.31     7.04     0  02:58        0.31
  YS02001901           JUNCTION     0.32     0.43     7.04     0  02:57        0.43
  YS02001904           JUNCTION     0.30     0.41     7.04     0  02:57        0.41
  YS02001907           JUNCTION     0.63     0.75     7.04     0  02:58        0.75
  YS02001910           JUNCTION     0.42     0.54     7.04     0  02:56        0.54
  YS02001915           JUNCTION     0.22     0.32     7.04     0  02:57        0.32
  YS02001918           JUNCTION     0.06     0.07     7.14     0  03:04        0.07
  YS02001619           JUNCTION     0.27     0.39     7.32     0  04:21        0.39
  YS02001629           JUNCTION     0.61     0.77     7.32     0  04:20        0.76
  YS02001641           JUNCTION     0.71     0.87     7.31     0  04:21        0.87
  YS02001644           JUNCTION     0.72     0.88     7.31     0  04:19        0.88
  YS02001652           JUNCTION     0.57     0.73     7.32     0  05:06        0.72
  YS02001655           JUNCTION     0.34     0.47     7.32     0  05:05        0.47
  YS02001920           JUNCTION     0.15     0.17     7.18     0  03:03        0.17
  YS02001923           JUNCTION     0.05     0.06     7.32     0  03:02        0.06
  YS02001926           JUNCTION     0.11     0.14     7.58     0  03:02        0.14
  YS02001929           JUNCTION     0.05     0.06     7.76     0  03:01        0.06
  YS02001658           JUNCTION     0.08     0.18     7.32     0  05:07        0.17
  YS02001661           JUNCTION     0.13     0.17     7.57     0  02:47        0.17
  YS02001664           JUNCTION     0.06     0.09     8.01     0  02:47        0.09
  YS02001622           JUNCTION     0.29     0.40     7.31     0  04:23        0.40
  YS02001633           JUNCTION     0.70     0.85     7.31     0  04:20        0.85
  YS02001649           JUNCTION     0.76     0.92     7.31     0  04:22        0.91
  YS02001757           JUNCTION     0.88     1.08     7.34     0  04:08        1.05
  YS02001895           JUNCTION     0.20     0.31     7.05     0  02:56        0.31
  YS02001625           JUNCTION     0.57     0.70     7.31     0  04:23        0.70
  YS02163301           JUNCTION     0.64     0.79     7.31     0  04:24        0.79
  YS02163601           JUNCTION     0.75     0.91     7.30     0  04:18        0.91
  YS02164001           JUNCTION     0.69     0.84     7.30     0  04:21        0.84
  YS02001647           JUNCTION     0.55     0.70     7.31     0  04:17        0.70
  YSB1154              JUNCTION     0.23     0.34     9.40     0  02:21        0.34
  YSB6556              JUNCTION     0.12     0.23     9.40     0  02:20        0.23
  YSB1174              JUNCTION     0.18     0.29     9.40     0  02:21        0.29
  YSB1171              JUNCTION     0.38     0.50     9.40     0  02:21        0.50
  YS02006553           JUNCTION     0.63     0.76     7.04     0  02:58        0.76
  YS02006561           JUNCTION     0.11     0.17     6.83     0  02:57        0.17
  YS02006556           JUNCTION     0.61     0.73     7.04     0  02:57        0.73
  YS02006558           JUNCTION     0.65     0.77     7.04     0  02:57        0.77
  YS02001783           JUNCTION     0.19     0.33     6.47     0  03:06        0.33
  YS02001784           JUNCTION     0.22     0.39     6.45     0  03:06        0.38
  YS02001786           JUNCTION     0.19     0.39     6.42     0  03:05        0.39
  YS02001788           JUNCTION     0.14     0.45     6.43     0  03:04        0.45
  YS02001790           JUNCTION     0.18     1.75     7.40     0  03:05        1.50
  YS02001791           JUNCTION     0.15     1.48     6.95     0  03:05        1.10
  YS02001793           JUNCTION     0.17     1.77     6.60     0  03:05        1.61
  WS02004139           JUNCTION     0.51     0.68     5.59     0  02:33        0.68
  WSC                  OUTFALL      0.25     0.32     0.99     0  05:54        0.32
  3                    OUTFALL      0.04     0.12     6.12     0  03:14        0.12
  4                    OUTFALL      0.00     0.08     7.08     0  05:30        0.08
  5                    OUTFALL      0.00     0.00     5.00     0  00:00        0.00
  JK-storage           STORAGE      1.06     5.59     6.39     0  03:05        5.58
  CC-storage           STORAGE      0.16     0.27     7.27     0  05:02        0.27
  XR-storage           STORAGE      7.53     7.72     5.72     0  02:21        7.72
  
  
  *******************
  Node Inflow Summary
  *******************
  
  -------------------------------------------------------------------------------------------------
                                  Maximum  Maximum                  Lateral       Total        Flow
                                  Lateral    Total  Time of Max      Inflow      Inflow     Balance
                                   Inflow   Inflow   Occurrence      Volume      Volume       Error
  Node                 Type           LPS      LPS  days hr:min    10^6 ltr    10^6 ltr     Percent
  -------------------------------------------------------------------------------------------------
  WS02001211           JUNCTION      7.35   363.90     0  02:30       0.207        4.74       0.640
  WS02001212           JUNCTION      0.00   359.10     0  02:33           0        4.71       0.417
  WS02001213           JUNCTION      0.00   355.82     0  02:33           0        4.69       0.328
  WS02003069           JUNCTION      0.32   646.76     0  05:52     0.00902        10.3       0.205
  WS02003072           JUNCTION      0.00   646.51     0  05:52           0        10.2       0.271
  WS02003073           JUNCTION      1.82   648.05     0  05:53      0.0514        10.3       0.292
  WS02003060           JUNCTION     16.53   646.50     0  05:51       0.466        10.3       0.201
  WS02003066           JUNCTION      0.00   405.65     0  03:23           0        5.17       0.063
  WS02003059           JUNCTION      0.00   347.08     0  02:34           0        4.68       0.693
  WS02003067           JUNCTION      0.00   405.60     0  03:22           0        5.18       0.142
  WS02004401           JUNCTION      0.00   417.34     0  03:17           0        5.37       0.343
  WS02004402           JUNCTION      0.00   415.13     0  03:18           0        5.35       0.328
  WS02004403           JUNCTION      0.00   413.94     0  03:18           0        5.33       0.303
  WS02004404           JUNCTION      0.16   413.67     0  03:19     0.00457        5.32       0.233
  WS02004406           JUNCTION      0.00   413.53     0  03:19           0        5.29       0.571
  WS02004409           JUNCTION      0.00   413.25     0  03:20           0        5.25       0.220
  WS02004410           JUNCTION      0.00   410.73     0  03:20           0        5.24       0.254
  WS02004411           JUNCTION      0.00   408.57     0  03:21           0        5.23       0.267
  WS02004412           JUNCTION      0.00   407.01     0  03:21           0        5.22       0.298
  WS02004413           JUNCTION      0.00   405.97     0  03:22           0         5.2       0.463
  WS02004405           JUNCTION      0.04   413.60     0  03:19     0.00107        5.31       0.349
  WS02006109           JUNCTION      1.23   430.18     0  03:14      0.0347        5.46       0.280
  WS02006110           JUNCTION      0.00   430.09     0  03:14           0        5.44       0.357
  WS02006111           JUNCTION      0.00   441.03     0  03:15           0        5.41       0.071
  WS02006112           JUNCTION      5.99   431.84     0  03:16      0.0176        5.43       0.497
  WS02006113           JUNCTION      0.00   429.91     0  03:14           0        5.42       0.156
  WS02006115           JUNCTION      0.00   426.62     0  03:15           0         5.4       0.319
  WS02006116           JUNCTION      0.00   420.91     0  03:17           0        5.38       0.274
  WS02006230           JUNCTION     10.28   383.46     0  05:35        0.29        4.78       0.171
  WS02006231           JUNCTION      0.00   374.03     0  05:34           0        4.51       0.319
  WS02006232           JUNCTION      0.00   374.91     0  03:12           0        4.52       0.328
  WS02006234           JUNCTION      0.00   379.30     0  03:12           0        4.53       0.152
  WS02006235           JUNCTION      0.00   383.24     0  03:12           0        4.58       0.221
  WS02006238           JUNCTION      0.00   329.95     0  05:30           0        2.82       0.181
  WS02006240           JUNCTION      0.00   332.75     0  05:30           0         2.8       0.375
  WS02006242           JUNCTION      0.00   339.50     0  02:51           0         2.8       0.482
  WS02006243           JUNCTION      0.00   347.72     0  02:51           0        2.78      -0.147
  WS02006245           JUNCTION      0.00   351.93     0  02:51           0        2.79       0.423
  WS02006247           JUNCTION      0.00   356.23     0  02:50           0         2.8       0.254
  WS02006248           JUNCTION      0.00   360.07     0  02:50           0         2.8       0.024
  WS02006249           JUNCTION      0.00   397.79     0  02:50           0        2.85       0.540
  WS02006239           JUNCTION      0.00   331.39     0  05:30           0         2.8       0.178
  WS02006251           JUNCTION      0.08   402.55     0  02:50     0.00217        2.89       0.275
  WS02006252           JUNCTION      0.00   399.98     0  03:10           0        2.77       0.017
  WS02006253           JUNCTION      0.94    25.22     0  02:21     0.00228       0.125       3.362
  WS02006256           JUNCTION      0.00   305.48     0  04:25           0        2.67       0.087
  WS02004138           JUNCTION      0.00   379.90     0  02:30           0        4.56       0.080
  WS02004407           JUNCTION      0.00   413.35     0  03:20           0        5.26       0.106
  WS02006228           JUNCTION      0.00   428.99     0  03:14           0        5.43       0.238
  WS02006229           JUNCTION      0.00   429.13     0  03:14           0        5.44       0.210
  WS02006280           JUNCTION      0.00   135.18     0  02:22           0       0.671       0.011
  WS02006284           JUNCTION      0.10   135.18     0  02:22      0.0027       0.672       0.166
  WS02006287           JUNCTION      0.00   135.09     0  02:22           0        0.67       0.104
  WSF200               JUNCTION      0.00   405.63     0  03:23           0        5.17       0.052
  HS02004901           JUNCTION      7.45     7.45     0  02:12      0.0212      0.0213       8.979
  HS02004881           JUNCTION      2.98    24.53     0  02:21     0.00923      0.0958       0.169
  HS02004876           JUNCTION      4.66    21.83     0  02:21      0.0176      0.0871       0.599
  HS02004870           JUNCTION      5.22    17.30     0  02:20      0.0174      0.0696       0.152
  HS02004862           JUNCTION      4.27    12.48     0  02:21       0.023      0.0523       0.319
  HS02004856           JUNCTION      3.86     8.26     0  02:20      0.0131      0.0307       4.900
  HS02004852           JUNCTION      0.00     4.68     0  02:21           0      0.0177       0.272
  HS02004848           JUNCTION      8.25     8.25     0  02:23      0.0412      0.0412       0.102
  HS02004842           JUNCTION      0.00     4.48     0  00:03           0      0.0366      55.200
  HS02004837           JUNCTION     14.65    18.04     0  02:19       0.209       0.233       0.349
  HS02004830           JUNCTION      0.15    18.19     0  02:19     0.00423       0.223       0.554
  HS02004824           JUNCTION      9.17    27.24     0  02:23      0.0541       0.276       0.195
  HS02004817           JUNCTION      0.60    27.84     0  02:23      0.0169       0.293       6.039
  HS02004807           JUNCTION      9.85    36.73     0  02:22      0.0321       0.308       1.391
  HS02004802           JUNCTION      0.00    36.80     0  02:23           0       0.304       1.354
  HS02004799           JUNCTION      7.54    83.79     0  02:19       0.026       0.331       0.682
  HS02004792           JUNCTION     34.05    76.52     0  02:19       0.116       0.305       0.136
  HS02004788           JUNCTION     11.87    44.60     0  02:20      0.0831        0.19       0.206
  HS02004785           JUNCTION      0.15    33.27     0  02:19     0.00423       0.109       0.441
  HS02004777           JUNCTION      0.03    33.70     0  02:18    0.000846       0.109       4.970
  HS02004770           JUNCTION     28.83    34.99     0  02:16      0.0904        0.11       2.898
  HS02004480           JUNCTION      0.00    98.63     0  02:20           0       0.382       0.181
  HS02004479           JUNCTION      0.00    15.21     0  02:22           0       0.064       1.149
  HS02004478           JUNCTION      0.00   135.10     0  02:21           0       0.671       0.097
  YS02001745           JUNCTION     42.89    42.89     0  03:01       0.505       0.505       0.101
  YS02001748           JUNCTION      0.04    84.10     0  05:05     0.00127       0.539      -0.001
  YS02001751           JUNCTION      0.01   125.63     0  03:40     0.00031       0.603       0.965
  YS02001754           JUNCTION      0.26   245.64     0  03:39     0.00733       0.755       1.779
  YS02001762           JUNCTION      0.00   128.26     0  03:57           0       0.594       2.902
  YS02001765           JUNCTION      0.00   118.22     0  03:52           0       0.599       3.102
  YS02001767           JUNCTION      0.54    95.48     0  03:50      0.0151       0.601       4.378
  YS02001770           JUNCTION     55.86    85.05     0  04:14       0.603         0.7       3.154
  YS02001774           JUNCTION      0.00    54.81     0  04:06           0       0.211       9.703
  YS02001779           JUNCTION      0.01    46.71     0  04:13    0.000141      0.0952       8.758
  YS02001882           JUNCTION      0.00     2.69     0  02:12           0     0.00365      67.142
  YS02001884           JUNCTION      0.00     8.11     0  02:08           0      0.0148      42.428
  YS02001759           JUNCTION     54.85   154.82     0  03:42       0.565        1.12       1.741
  YS02001887           JUNCTION     73.24    73.24     0  02:45       0.689       0.696       0.967
  YS02001890           JUNCTION      0.00    72.85     0  02:48           0       0.677       1.096
  YS02001898           JUNCTION      0.00    72.53     0  02:51           0       0.666       0.278
  YS02001901           JUNCTION      0.00    72.53     0  02:51           0       0.666       0.762
  YS02001904           JUNCTION      0.00    72.26     0  02:53           0       0.666       0.711
  YS02001907           JUNCTION      0.00   130.78     0  02:59           0        1.42       1.525
  YS02001910           JUNCTION      0.00    59.25     0  03:01           0       0.761       1.271
  YS02001915           JUNCTION     38.65    58.95     0  03:01       0.436       0.765       0.524
  YS02001918           JUNCTION      0.00    20.45     0  03:03           0        0.33       0.262
  YS02001619           JUNCTION     37.51    37.51     0  03:01       0.429        0.43       0.483
  YS02001629           JUNCTION      0.00    46.94     0  04:20           0       0.401       2.468
  YS02001641           JUNCTION      0.00    90.09     0  03:53           0       0.843       1.926
  YS02001644           JUNCTION     40.70   120.10     0  03:01       0.484         1.3       1.518
  YS02001652           JUNCTION      0.00    96.03     0  03:49           0       0.547       2.363
  YS02001655           JUNCTION      0.15    86.71     0  04:57     0.00434       0.528       1.302
  YS02001920           JUNCTION      2.87    20.46     0  03:02      0.0809       0.332       0.529
  YS02001923           JUNCTION      0.04    17.59     0  03:02     0.00106       0.251       0.093
  YS02001926           JUNCTION      0.05    17.60     0  03:01     0.00147       0.252       0.674
  YS02001929           JUNCTION     17.56    17.56     0  03:01       0.251       0.251       0.088
  YS02001658           JUNCTION      0.00    60.77     0  05:07           0       0.517       0.044
  YS02001661           JUNCTION      0.00    51.54     0  02:47           0       0.498       0.146
  YS02001664           JUNCTION     51.54    51.54     0  02:47       0.498       0.498       0.030
  YS02001622           JUNCTION      0.00    52.38     0  04:19           0       0.428       1.668
  YS02001633           JUNCTION     41.39    80.25     0  03:12       0.499       0.882       2.702
  YS02001649           JUNCTION      0.00   260.60     0  03:49           0        1.78       1.659
  YS02001757           JUNCTION      0.00   482.89     0  03:49           0        3.44       2.308
  YS02001895           JUNCTION      0.00    72.62     0  02:48           0       0.669       0.486
  YS02001625           JUNCTION      0.00    45.46     0  04:22           0        0.42       5.135
  YS02163301           JUNCTION      0.00    45.95     0  03:54           0         0.4       4.170
  YS02163601           JUNCTION      0.11    84.77     0  03:10      0.0031       0.855       2.851
  YS02164001           JUNCTION      0.00    90.07     0  03:55           0       0.841       1.786
  YS02001647           JUNCTION      0.00   126.43     0  03:15           0        1.27       1.321
  YSB1154              JUNCTION      8.28     8.28     0  02:17      0.0314      0.0328       4.601
  YSB6556              JUNCTION      0.00     8.14     0  02:20           0      0.0339       3.813
  YSB1174              JUNCTION      8.52     8.52     0  02:12       0.023       0.024       5.657
  YSB1171              JUNCTION      0.00    15.19     0  02:19           0      0.0634      11.065
  YS02006553           JUNCTION      0.00   130.95     0  03:02           0        1.41       0.993
  YS02006561           JUNCTION      0.00   191.97     0  02:57           0        1.98       0.027
  YS02006556           JUNCTION      0.00   131.13     0  03:03           0        1.41       0.712
  YS02006558           JUNCTION     61.77   191.98     0  02:57       0.628        2.01       0.215
  YS02001783           JUNCTION      0.00   191.96     0  02:57           0        1.98       0.063
  YS02001784           JUNCTION      1.06   193.16     0  03:07      0.0299        2.01       0.106
  YS02001786           JUNCTION      0.06   201.33     0  03:12     0.00159        2.01       0.104
  YS02001788           JUNCTION      0.07   243.60     0  03:11       0.002        2.01       0.059
  YS02001790           JUNCTION      0.15   378.32     0  03:10     0.00437        2.02       0.072
  YS02001791           JUNCTION      0.00   326.01     0  03:11           0        2.01       0.018
  YS02001793           JUNCTION      0.00   386.24     0  03:24           0        2.02       0.026
  WS02004139           JUNCTION      0.32   378.82     0  02:30     0.00905        4.57       0.698
  WSC                  OUTFALL       0.00   647.68     0  05:54           0        10.2       0.000
  3                    OUTFALL       0.00   214.37     0  03:14           0       0.872       0.000
  4                    OUTFALL       0.00    57.60     0  05:30           0      0.0406       0.000
  5                    OUTFALL       0.00     0.00     0  00:00           0           0       0.000 ltr
  JK-storage           STORAGE       0.00   714.33     0  03:25           0        2.17     -18.742
  CC-storage           STORAGE       0.00   315.55     0  03:03           0        3.17       0.132
  XR-storage           STORAGE     270.14   270.14     0  02:54        6.48        7.08      -0.006
  
  
  **********************
  Node Surcharge Summary
  **********************
  
  Surcharging occurs when water rises above the top of the highest conduit.
  ---------------------------------------------------------------------
                                               Max. Height   Min. Depth
                                   Hours       Above Crown    Below Rim
  Node                 Type      Surcharged         Meters       Meters
  ---------------------------------------------------------------------
  WS02006109           JUNCTION        0.12          0.033        1.787
  WS02006232           JUNCTION        0.27          0.031        1.449
  WS02006238           JUNCTION        0.07          0.013        1.417
  WS02006252           JUNCTION        0.70          0.185        0.915
  WS02006228           JUNCTION        0.12          0.035        2.165
  YS02001757           JUNCTION        1.17          0.079        1.131
  YS02001790           JUNCTION        0.01          0.954        0.203
  YS02001791           JUNCTION        0.13          0.675        1.245
  YS02001793           JUNCTION        0.32          0.770        1.830
  
  
  *********************
  Node Flooding Summary
  *********************
  
  Flooding refers to all water that overflows a node, whether it ponds or not.
  --------------------------------------------------------------------------
                                                             Total   Maximum
                                 Maximum   Time of Max       Flood    Ponded
                        Hours       Rate    Occurrence      Volume     Depth
  Node                 Flooded       LPS   days hr:min    10^6 ltr    Meters
  --------------------------------------------------------------------------
  XR-storage              4.20    245.52      0  04:10       1.595     0.000
  
  
  **********************
  Storage Volume Summary
  **********************
  
  --------------------------------------------------------------------------------------------------
                         Average     Avg  Evap Exfil       Maximum     Max    Time of Max    Maximum
                          Volume    Pcnt  Pcnt  Pcnt        Volume    Pcnt     Occurrence    Outflow
  Storage Unit           1000 m3    Full  Loss  Loss       1000 m3    Full    days hr:min        LPS
  --------------------------------------------------------------------------------------------------
  JK-storage               0.053      18     0     0         0.281      96       0  03:05     512.40
  CC-storage               0.440       3     0     0         0.761       5       0  05:02     399.98
  XR-storage               0.903      98     0     0         0.926     100       0  02:21     379.90
  
  
  ***********************
  Outfall Loading Summary
  ***********************
  
  -----------------------------------------------------------
                         Flow       Avg       Max       Total
                         Freq      Flow      Flow      Volume
  Outfall Node           Pcnt       LPS       LPS    10^6 ltr
  -----------------------------------------------------------
  WSC                  100.00    410.01    647.68      10.234
  3                     55.29     85.17    214.37       0.872
  4                     10.82     17.04     57.60       0.041
  5                      0.00      0.00      0.00       0.000
  -----------------------------------------------------------
  System                41.53    512.22    780.36      11.147
  
  
  ********************
  Link Flow Summary
  ********************
  
  -----------------------------------------------------------------------------
                                 Maximum  Time of Max   Maximum    Max/    Max/
                                  |Flow|   Occurrence   |Veloc|    Full    Full
  Link                 Type          LPS  days hr:min     m/sec    Flow   Depth
  -----------------------------------------------------------------------------
  WS02003066WSF200     CONDUIT    405.63     0  03:23      2.61    0.07    0.20
  WS02006287WS02006284 CONDUIT    135.08     0  02:22      1.40    0.06    0.18
  WS02006284WS02006280 CONDUIT    135.18     0  02:22      1.65    0.06    0.16
  WS02006280WS02006229 CONDUIT    135.18     0  02:22      2.64    0.03    0.12
  WS02006229WS02006228 CONDUIT    428.99     0  03:14      0.85    1.42    1.00
  WS02006256WS02006235 CONDUIT    149.95     0  00:15      2.14    1.59    1.00
  WS02006253WS02006251 CONDUIT     30.26     0  02:57      0.41    0.09    0.87
  WS02006252WS02006251 CONDUIT    399.97     0  03:10      3.18    1.47    1.00
  WS02006251WS02006249 CONDUIT    397.79     0  02:50      1.18    1.15    0.84
  WS02006249WS02006248 CONDUIT    360.07     0  02:50      1.17    1.97    0.79
  WS02006248WS02006247 CONDUIT    356.23     0  02:50      1.14    0.78    0.81
  WS02006247WS02006245 CONDUIT    351.93     0  02:51      1.12    2.79    0.83
  WS02006245WS02006243 CONDUIT    347.72     0  02:51      1.17    1.03    0.83
  WS02006243WS02006242 CONDUIT    339.50     0  02:51      1.05    0.73    0.91
  WS02006242WS02006240 CONDUIT    332.75     0  05:30      0.99    1.32    0.96
  WS02006240WS02006239 CONDUIT    331.39     0  05:30      1.04    1.04    0.94
  WS02006239WS02006238 CONDUIT    329.95     0  05:30      0.94    1.06    1.00
  WS02006238WS02006235 CONDUIT    328.56     0  05:30      0.93    0.73    1.00
  WS02006235WS02006234 CONDUIT    379.30     0  03:12      1.03    4.00    0.96
  WS02006234WS02006232 CONDUIT    374.91     0  03:12      0.98    0.76    0.98
  WS02006232WS02006231 CONDUIT    374.03     0  05:34      1.04    0.78    0.91
  WS02006231WS02006230 CONDUIT    373.18     0  05:35      1.36    5.66    0.77
  WS02006230WS02006229 CONDUIT    382.98     0  05:36      1.00    8.52    1.00
  WS02006228WS02006109 CONDUIT    428.95     0  03:14      0.85    1.87    1.00
  WS02006116WS02004401 CONDUIT    417.34     0  03:17      0.79    0.58    0.74
  WS02006115WS02006116 CONDUIT    420.91     0  03:17      0.94    0.54    0.66
  WS02006113WS02006111 CONDUIT    441.03     0  03:15      2.27    0.53    0.41
  WS02006112WS02006115 CONDUIT    426.62     0  03:15      0.66    0.25    0.78
  WS02006111WS02006112 CONDUIT    431.02     0  03:16      1.27    0.20    0.65
  WS02006110WS02006113 CONDUIT    429.91     0  03:14      1.06    0.39    0.75
  WS02006109WS02006110 CONDUIT    430.09     0  03:14      0.87    0.83    0.95
  WS02004411WS02004412 CONDUIT    407.01     0  03:21      0.81    0.58    0.61
  WS02004401WS02004402 CONDUIT    415.13     0  03:18      0.84    0.50    0.77
  WS02004413WS02003067 CONDUIT    405.60     0  03:22      0.96    0.17    0.53
  WS02004412WS02004413 CONDUIT    405.97     0  03:22      0.69    0.27    0.70
  WS02004410WS02004411 CONDUIT    408.57     0  03:21      0.84    0.56    0.60
  WS02004409WS02004410 CONDUIT    410.73     0  03:20      0.88    0.53    0.58
  WS02004407WS02004409 CONDUIT    413.25     0  03:20      1.37    0.15    0.41
  WS02004406WS02004407 CONDUIT    413.35     0  03:20      0.89    0.18    0.57
  WS02004405WS02004406 CONDUIT    413.53     0  03:19      0.76    0.82    0.88
  WS02004404WS02004405 CONDUIT    413.56     0  03:19      0.96    4.05    0.88
  WS02004403WS02004404 CONDUIT    413.51     0  03:19      0.85    0.30    0.84
  WS02004402WS02004403 CONDUIT    413.94     0  03:18      0.87    0.59    0.79
  WS02004139WS02001211 CONDUIT    356.56     0  02:30      0.69    0.45    0.55
  WS02004138WS02004139 CONDUIT    378.50     0  02:30      2.95    0.08    0.41
  WS02003067WS02003066 CONDUIT    405.65     0  03:23      1.03    0.13    0.38
  WS02001213WS02003059 CONDUIT    347.08     0  02:34      0.65    0.57    0.69
  WS02001212WS02001213 CONDUIT    355.82     0  02:33      1.28    0.55    0.40
  WS02001211WS02001212 CONDUIT    359.10     0  02:33      0.75    0.27    0.59
  WS02003072WS02003073 CONDUIT    646.23     0  05:53      1.51    1.40    0.40
  WS02003069WS02003072 CONDUIT    646.51     0  05:52      1.44    0.31    0.42
  WS02003060WS02003069 CONDUIT    646.44     0  05:52      1.70    0.25    0.37
  WS02003059WS02003060 CONDUIT    343.62     0  02:35      0.79    0.22    0.56
  HS02004901HS02004770 CONDUIT      6.58     0  02:17      0.03    0.02    0.27
  HS02004876HS02004881 CONDUIT     21.84     0  02:21      0.41    0.23    0.08
  HS02004870HS02004876 CONDUIT     17.28     0  02:21      0.29    0.01    0.08
  HS02004842HS02004848 CONDUIT      3.82     0  02:32      0.02    0.00    0.26
  HS02004837HS02004842 CONDUIT      4.48     0  00:03      0.42    0.00    0.28
  HS02004830HS02004837 CONDUIT     18.04     0  02:19      0.39    0.02    0.07
  HS02004824HS02004830 CONDUIT     18.18     0  02:20      0.44    0.02    0.06
  HS02004817HS02004824 CONDUIT     27.24     0  02:23      0.17    0.01    0.37
  HS02004770HS02004777 CONDUIT     33.67     0  02:18      0.17    0.06    0.29
  HS02004799HS02004480 CONDUIT     83.62     0  02:20      0.47    0.11    0.25
  HS02004792HS02004799 CONDUIT     76.48     0  02:19      0.55    0.05    0.20
  HS02004788HS02004792 CONDUIT     44.56     0  02:21      0.71    0.03    0.09
  HS02004785HS02004788 CONDUIT     33.12     0  02:21      0.42    0.25    0.11
  HS02004777HS02004785 CONDUIT     33.12     0  02:19      0.21    0.04    0.23
  HS02004480HS02004478 CONDUIT     98.63     0  02:21      0.80    0.42    0.18
  HS02004479HS02004480 CONDUIT     15.34     0  02:23      0.15    0.01    0.25
  HS02004862HS02004870 CONDUIT     12.44     0  02:22      0.39    0.01    0.05
  HS02004848HS02004852 CONDUIT      4.68     0  02:21      0.25    0.01    0.03
  HS02004856HS02004862 CONDUIT      8.23     0  02:21      0.28    0.01    0.04
  HS02004852HS02004856 CONDUIT      4.64     0  02:22      0.08    0.01    0.08
  HS02004802HS02004478 CONDUIT     36.97     0  02:25      0.24    0.03    0.22
  HS02004478WS02006287 CONDUIT    135.09     0  02:22      1.09    0.04    0.14
  HS02004817HS02004807 CONDUIT     28.09     0  02:26      0.09    0.02    0.47
  HS02004807HS02004802 CONDUIT     36.80     0  02:23      0.20    0.07    0.26
  YS02001759YS02001757 CONDUIT    129.27     0  03:51      0.17    0.09    0.98
  YS02001762YS02001759 CONDUIT    116.41     0  03:42      0.17    0.13    0.93
  YS02001765YS02001762 CONDUIT    128.26     0  03:57      0.22    0.12    0.89
  YS02001770YS02001767 CONDUIT     67.07     0  02:52      0.32    0.27    0.82
  YS02001774YS02001770 CONDUIT     54.81     0  04:06      0.14    0.04    0.83
  YS02001779YS02001774 CONDUIT     49.14     0  04:14      0.08    0.02    0.75
  YS02001649YS02001757 CONDUIT    199.81     0  03:54      0.27    0.12    0.96
  YS02001767YS02001765 CONDUIT    113.09     0  03:50      0.26    0.14    0.84
  YS02006561YS02001783 CONDUIT    191.96     0  02:57      1.57    0.10    0.31
  YS02001783YS02001784 CONDUIT    192.10     0  03:07      1.06    0.26    0.45
  YS02001784YS02001785 CONDUIT    201.27     0  03:12      1.14    0.47    0.49
  YS02001788YS02001790 CONDUIT    378.17     0  03:10      1.65    0.28    0.74
  YS02001790YS02001791 CONDUIT    326.01     0  03:11      1.93    0.35    1.00
  YS02001791YS02001793 CONDUIT    373.89     0  03:18      3.77    0.16    1.00
  YS02001910YS02001907 CONDUIT     59.25     0  03:01      0.49    0.03    0.64
  YS02001786YS02001788 CONDUIT    243.53     0  03:11      1.66    0.47    0.52
  YS02001915YS02001910 CONDUIT     59.25     0  03:01      0.44    0.03    0.43
  YS02001918YS02001915 CONDUIT     20.44     0  03:04      0.44    0.01    0.20
  YS02001923YS02001920 CONDUIT     17.59     0  03:02      0.34    0.01    0.12
  YS02001926YS02001923 CONDUIT     17.55     0  03:02      0.40    0.03    0.11
  YS02001929YS02001926 CONDUIT     17.55     0  03:01      0.41    0.01    0.10
  YS02001920YS02001918 CONDUIT     20.45     0  03:03      0.37    0.02    0.12
  YS02001629YS02163301 CONDUIT     45.95     0  03:54      0.09    0.06    0.78
  YS02001619YS02001622 CONDUIT     52.38     0  04:19      0.58    0.08    0.39
  YS02001622YS02001625 CONDUIT     45.46     0  04:22      0.19    0.02    0.55
  YS02001625YS02001629 CONDUIT     46.62     0  04:29      0.19    0.02    0.54
  YS02163301YS02001633 CONDUIT     51.71     0  04:41      0.10    0.05    0.82
  YS02163601YS02164001 CONDUIT     90.07     0  03:55      0.13    0.08    0.87
  YS02164001YS02001641 CONDUIT     90.09     0  03:53      0.14    0.12    0.86
  YS02001641YS02001644 CONDUIT     82.88     0  03:58      0.13    0.27    0.87
  YS02001647YS02001649 CONDUIT    152.72     0  03:52      0.25    0.08    0.80
  YS02006553YS02006556 CONDUIT    131.13     0  03:03      0.22    0.11    0.72
  YS02006556YS02006558 CONDUIT    131.25     0  03:03      0.21    0.10    0.75
  YSB6556YSB1171       CONDUIT      8.24     0  02:23      0.04    0.01    0.52
  YS02001907YS02006553 CONDUIT    130.95     0  03:02      0.18    0.15    0.82
  YS02006558YS02006561 CONDUIT    191.97     0  02:57      2.02    0.42    0.37
  YS02001633YS02163601 CONDUIT     84.66     0  03:10      0.13    0.09    0.87
  YS02001644YS02001647 CONDUIT    126.43     0  03:15      0.21    0.07    0.79
  YS02001745YS02001748 CONDUIT     42.88     0  03:01      1.24    0.02    0.12
  YS02001748YS02001751 CONDUIT    103.13     0  05:07      0.97    0.05    0.33
  YS02001751YS02001754 CONDUIT    133.22     0  03:41      0.90    0.06    0.56
  YS02001754YS02001757 CONDUIT    192.58     0  03:40      0.33    0.08    0.86
  YS02001882YS02001884 CONDUIT      2.69     0  02:12      0.06    0.00    0.36
  YS02001884YS02001887 CONDUIT      8.11     0  02:08      0.06    0.01    0.46
  YS02001890YS02001895 CONDUIT     72.62     0  02:48      0.23    0.03    0.43
  YS02001895YS02001898 CONDUIT     72.53     0  02:51      0.45    0.13    0.29
  YS02001898YS02001901 CONDUIT     72.53     0  02:51      0.27    0.05    0.37
  YS02001901YS02001904 CONDUIT     72.26     0  02:53      0.23    0.11    0.42
  YS02001904YS02001907 CONDUIT     72.36     0  02:53      0.15    0.03    0.58
  YS02001887YS02001890 CONDUIT     72.85     0  02:48      0.18    0.12    0.51
  YS02001652YS02001649 CONDUIT    108.10     0  03:49      0.30    0.05    0.81
  YS02001655YS02001652 CONDUIT     76.66     0  03:43      0.96    0.04    0.58
  YS02001658YS02001655 CONDUIT     80.34     0  04:57      1.12    0.03    0.31
  YS02001661YS02001658 CONDUIT     51.54     0  02:47      1.25    0.02    0.12
  YS02001664YS02001661 CONDUIT     51.54     0  02:47      0.87    0.02    0.13
  YSB1154YSB6556       CONDUIT      8.14     0  02:20      0.19    0.01    0.41
  YSB1174YSB1171       CONDUIT      7.69     0  02:13      0.04    0.01    0.53
  YSB1171HS02004479    CONDUIT     15.21     0  02:22      0.54    0.01    0.40
  HS02004881HS02006253 CONDUIT     24.53     0  02:21      1.39    0.00    0.21
  YS02001793JiankangQianchi CONDUIT    714.33     0  03:25     10.37    0.06    1.00
  YS02001757CaochengTiaoxuchi CONDUIT    315.55     0  03:03      0.79    0.14    0.64
  WSF200WS02003060     CONDUIT    405.91     0  03:23      1.71    0.09    0.28
  1                    CONDUIT    647.68     0  05:54      2.95    0.23    0.32
  2                    CONDUIT     57.60     0  05:30      4.14    0.14    0.25
  3                    CONDUIT    214.37     0  03:14      7.98    0.34    0.40
  4                    CONDUIT      0.00     0  00:00      0.00    0.00    0.00
  CC-Pump-1            PUMP       200.00     0  05:30              1.00
  CC-Pump-2            PUMP       200.00     0  03:40              1.00
  JK-Pump-1            PUMP       300.00     0  03:10              1.00
  JK-Pump-2            PUMP       152.74     0  04:25              0.51
  XR-Pump-1            PUMP        95.00     0  00:00              1.00
  XR-Pump-2            PUMP        95.00     0  01:00              1.00
  XR-Pump-3            PUMP        95.00     0  00:00              1.00
  XR-Pump-4            PUMP        95.00     0  01:30              1.00
  
  
  ***************************
  Flow Classification Summary
  ***************************
  
  -------------------------------------------------------------------------------------
                      Adjusted    ---------- Fraction of Time in Flow Class ---------- 
                       /Actual         Up    Down  Sub   Sup   Up    Down  Norm  Inlet 
  Conduit               Length    Dry  Dry   Dry   Crit  Crit  Crit  Crit  Ltd   Ctrl  
  -------------------------------------------------------------------------------------
  WS02003066WSF200        1.00   0.05  0.00  0.00  0.00  0.95  0.00  0.00  0.85  0.00
  WS02006287WS02006284    1.00   0.04  0.02  0.00  0.72  0.22  0.00  0.00  0.79  0.00
  WS02006284WS02006280    1.00   0.05  0.00  0.00  0.00  0.00  0.00  0.95  0.00  0.00
  WS02006280WS02006229    1.00   0.05  0.00  0.00  0.00  0.00  0.00  0.95  0.00  0.00
  WS02006229WS02006228    1.00   0.00  0.00  0.00  1.00  0.00  0.00  0.00  0.00  0.00
  WS02006256WS02006235    1.00   0.00  0.00  0.00  1.00  0.00  0.00  0.00  0.00  0.00
  WS02006253WS02006251    1.00   0.03  0.02  0.00  0.95  0.00  0.00  0.00  0.00  0.00
  WS02006252WS02006251    1.00   0.11  0.00  0.00  0.00  0.00  0.89  0.00  0.00  0.00
  WS02006251WS02006249    1.00   0.00  0.00  0.00  1.00  0.00  0.00  0.00  0.40  0.00
  WS02006249WS02006248    1.00   0.00  0.00  0.00  0.77  0.00  0.22  0.00  0.00  0.00
  WS02006248WS02006247    1.00   0.00  0.00  0.00  0.97  0.00  0.00  0.03  0.31  0.00
  WS02006247WS02006245    1.00   0.01  0.00  0.00  0.97  0.00  0.00  0.03  0.00  0.00
  WS02006245WS02006243    1.00   0.01  0.00  0.00  0.94  0.00  0.00  0.05  0.06  0.00
  WS02006243WS02006242    1.00   0.01  0.00  0.00  0.99  0.00  0.00  0.00  0.24  0.00
  WS02006242WS02006240    1.00   0.01  0.00  0.00  0.99  0.00  0.00  0.00  0.00  0.00
  WS02006240WS02006239    1.00   0.01  0.00  0.00  0.95  0.00  0.00  0.05  0.02  0.00
  WS02006239WS02006238    1.00   0.01  0.00  0.00  0.99  0.00  0.00  0.00  0.00  0.00
  WS02006238WS02006235    1.00   0.01  0.00  0.00  0.99  0.00  0.00  0.00  0.00  0.00
  WS02006235WS02006234    1.00   0.01  0.00  0.00  0.95  0.00  0.05  0.00  0.00  0.00
  WS02006234WS02006232    1.00   0.01  0.00  0.00  0.99  0.00  0.00  0.00  0.12  0.00
  WS02006232WS02006231    1.00   0.01  0.00  0.00  0.99  0.00  0.00  0.00  0.00  0.00
  WS02006231WS02006230    1.00   0.01  0.00  0.00  0.22  0.00  0.78  0.00  0.00  0.00
  WS02006230WS02006229    1.00   0.00  0.00  0.00  0.99  0.00  0.00  0.01  0.00  0.00
  WS02006228WS02006109    1.00   0.00  0.00  0.00  1.00  0.00  0.00  0.00  0.01  0.00
  WS02006116WS02004401    1.00   0.03  0.00  0.00  0.97  0.00  0.00  0.00  0.00  0.00
  WS02006115WS02006116    1.00   0.03  0.00  0.00  0.97  0.00  0.00  0.01  0.00  0.00
  WS02006113WS02006111    1.00   0.02  0.00  0.00  0.00  0.98  0.00  0.00  0.19  0.00
  WS02006112WS02006115    1.00   0.02  0.01  0.00  0.97  0.00  0.00  0.00  0.00  0.00
  WS02006111WS02006112    1.00   0.02  0.00  0.00  0.97  0.00  0.00  0.00  0.95  0.00
  WS02006110WS02006113    1.00   0.00  0.01  0.00  0.98  0.00  0.00  0.00  0.00  0.00
  WS02006109WS02006110    1.00   0.00  0.00  0.00  0.99  0.00  0.00  0.00  0.00  0.00
  WS02004411WS02004412    1.00   0.04  0.00  0.00  0.96  0.00  0.00  0.00  0.00  0.00
  WS02004401WS02004402    1.00   0.03  0.00  0.00  0.97  0.00  0.00  0.00  0.00  0.00
  WS02004413WS02003067    1.00   0.04  0.01  0.00  0.00  0.00  0.95  0.00  0.00  0.00
  WS02004412WS02004413    1.00   0.04  0.00  0.00  0.96  0.00  0.00  0.00  0.01  0.00
  WS02004410WS02004411    1.00   0.04  0.00  0.00  0.96  0.00  0.00  0.00  0.00  0.00
  WS02004409WS02004410    1.00   0.04  0.00  0.00  0.96  0.00  0.00  0.00  0.02  0.00
  WS02004407WS02004409    1.00   0.04  0.00  0.00  0.96  0.00  0.00  0.00  0.92  0.00
  WS02004406WS02004407    1.00   0.00  0.04  0.00  0.96  0.00  0.00  0.00  0.00  0.00
  WS02004405WS02004406    1.00   0.00  0.00  0.00  1.00  0.00  0.00  0.00  0.03  0.00
  WS02004404WS02004405    1.00   0.00  0.00  0.00  1.00  0.00  0.00  0.00  0.00  0.00
  WS02004403WS02004404    1.00   0.00  0.03  0.00  0.97  0.00  0.00  0.00  0.00  0.00
  WS02004402WS02004403    1.00   0.03  0.00  0.00  0.97  0.00  0.00  0.00  0.00  0.00
  WS02004139WS02001211    1.00   0.00  0.00  0.00  1.00  0.00  0.00  0.00  0.00  0.00
  WS02004138WS02004139    1.00   0.00  0.00  0.00  1.00  0.00  0.00  0.00  1.00  0.00
  WS02003067WS02003066    1.00   0.05  0.00  0.00  0.95  0.00  0.00  0.00  0.00  0.00
  WS02001213WS02003059    1.00   0.00  0.00  0.00  1.00  0.00  0.00  0.00  0.00  0.00
  WS02001212WS02001213    1.00   0.00  0.00  0.00  0.52  0.00  0.48  0.00  0.00  0.00
  WS02001211WS02001212    1.00   0.00  0.00  0.00  1.00  0.00  0.00  0.00  0.00  0.00
  WS02003072WS02003073    1.00   0.00  0.00  0.00  0.00  0.00  0.00  1.00  0.00  0.00
  WS02003069WS02003072    1.00   0.00  0.00  0.00  1.00  0.00  0.00  0.00  0.49  0.00
  WS02003060WS02003069    1.00   0.00  0.00  0.00  0.98  0.02  0.00  0.00  0.29  0.00
  WS02003059WS02003060    1.00   0.00  0.00  0.00  1.00  0.00  0.00  0.00  0.01  0.00
  HS02004901HS02004770    1.00   0.05  0.00  0.00  0.95  0.00  0.00  0.00  0.03  0.00
  HS02004876HS02004881    1.00   0.00  0.00  0.00  1.00  0.00  0.00  0.00  0.00  0.00
  HS02004870HS02004876    1.00   0.00  0.00  0.00  1.00  0.00  0.00  0.00  0.95  0.00
  HS02004842HS02004848    1.00   0.00  0.05  0.00  0.95  0.00  0.00  0.00  0.70  0.00
  HS02004837HS02004842    1.00   0.00  0.00  0.00  1.00  0.00  0.00  0.00  0.11  0.00
  HS02004830HS02004837    1.00   0.00  0.00  0.00  1.00  0.00  0.00  0.00  0.99  0.00
  HS02004824HS02004830    1.00   0.00  0.00  0.00  1.00  0.00  0.00  0.00  0.00  0.00
  HS02004817HS02004824    1.00   0.00  0.00  0.00  1.00  0.00  0.00  0.00  1.00  0.00
  HS02004770HS02004777    1.00   0.00  0.05  0.00  0.95  0.00  0.00  0.00  0.08  0.00
  HS02004799HS02004480    1.00   0.00  0.01  0.00  0.93  0.00  0.06  0.00  0.00  0.00
  HS02004792HS02004799    1.00   0.00  0.00  0.00  1.00  0.00  0.00  0.00  0.98  0.00
  HS02004788HS02004792    1.00   0.00  0.00  0.00  1.00  0.00  0.00  0.00  0.98  0.00
  HS02004785HS02004788    1.00   0.00  0.00  0.00  1.00  0.00  0.00  0.00  0.00  0.00
  HS02004777HS02004785    1.00   0.00  0.00  0.00  1.00  0.00  0.00  0.00  0.22  0.00
  HS02004480HS02004478    1.00   0.06  0.00  0.00  0.75  0.00  0.00  0.20  0.00  0.00
  HS02004479HS02004480    1.00   0.01  0.00  0.00  0.99  0.00  0.00  0.00  0.16  0.00
  HS02004862HS02004870    1.00   0.00  0.00  0.00  1.00  0.00  0.00  0.00  0.05  0.00
  HS02004848HS02004852    1.00   0.05  0.00  0.00  0.95  0.00  0.00  0.00  0.70  0.00
  HS02004856HS02004862    1.00   0.00  0.08  0.00  0.92  0.00  0.00  0.00  0.73  0.00
  HS02004852HS02004856    1.00   0.05  0.01  0.00  0.94  0.00  0.00  0.00  0.82  0.00
  HS02004802HS02004478    1.00   0.05  0.01  0.00  0.94  0.00  0.00  0.00  0.00  0.00
  HS02004478WS02006287    1.00   0.06  0.00  0.00  0.94  0.00  0.00  0.00  0.81  0.00
  HS02004817HS02004807    1.00   0.00  0.05  0.00  0.95  0.00  0.00  0.00  0.00  0.00
  HS02004807HS02004802    1.00   0.05  0.00  0.00  0.95  0.00  0.00  0.00  0.01  0.00
  YS02001759YS02001757    1.00   0.00  0.00  0.00  1.00  0.00  0.00  0.00  0.17  0.00
  YS02001762YS02001759    1.00   0.00  0.00  0.00  1.00  0.00  0.00  0.00  0.05  0.00
  YS02001765YS02001762    1.00   0.00  0.00  0.00  1.00  0.00  0.00  0.00  0.23  0.00
  YS02001770YS02001767    1.00   0.00  0.00  0.00  1.00  0.00  0.00  0.00  0.00  0.00
  YS02001774YS02001770    1.00   0.00  0.06  0.00  0.94  0.00  0.00  0.00  0.07  0.00
  YS02001779YS02001774    1.00   0.00  0.00  0.00  1.00  0.00  0.00  0.00  0.27  0.00
  YS02001649YS02001757    1.00   0.00  0.00  0.00  1.00  0.00  0.00  0.00  0.19  0.00
  YS02001767YS02001765    1.00   0.00  0.00  0.00  1.00  0.00  0.00  0.00  0.01  0.00
  YS02006561YS02001783    1.00   0.08  0.00  0.00  0.00  0.92  0.00  0.00  0.72  0.00
  YS02001783YS02001784    1.00   0.00  0.08  0.00  0.92  0.00  0.00  0.00  0.07  0.00
  YS02001784YS02001785    1.00   0.00  0.00  0.00  1.00  0.00  0.00  0.00  0.26  0.00
  YS02001788YS02001790    1.00   0.00  0.00  0.00  0.14  0.86  0.00  0.00  0.96  0.00
  YS02001790YS02001791    1.00   0.00  0.00  0.00  0.07  0.93  0.00  0.00  0.36  0.00
  YS02001791YS02001793    1.00   0.00  0.00  0.00  0.10  0.90  0.00  0.00  0.02  0.00
  YS02001910YS02001907    1.00   0.00  0.00  0.00  0.99  0.00  0.00  0.01  0.13  0.00
  YS02001786YS02001788    1.00   0.00  0.00  0.00  0.12  0.88  0.00  0.00  0.00  0.00
  YS02001915YS02001910    1.00   0.00  0.00  0.00  1.00  0.00  0.00  0.00  0.25  0.00
  YS02001918YS02001915    1.00   0.00  0.00  0.00  1.00  0.00  0.00  0.00  0.80  0.00
  YS02001923YS02001920    1.00   0.00  0.00  0.00  1.00  0.00  0.00  0.00  1.00  0.00
  YS02001926YS02001923    1.00   0.00  0.04  0.00  0.00  0.00  0.96  0.00  0.00  0.00
  YS02001929YS02001926    1.00   0.00  0.05  0.00  0.95  0.00  0.00  0.00  0.86  0.00
  YS02001920YS02001918    1.00   0.00  0.00  0.00  1.00  0.00  0.00  0.00  0.00  0.00
  YS02001629YS02163301    1.00   0.07  0.00  0.00  0.92  0.00  0.00  0.00  0.00  0.00
  YS02001619YS02001622    1.00   0.05  0.00  0.00  0.95  0.00  0.00  0.00  0.00  0.00
  YS02001622YS02001625    1.00   0.05  0.00  0.00  0.95  0.00  0.00  0.00  0.14  0.00
  YS02001625YS02001629    1.00   0.05  0.03  0.00  0.89  0.00  0.03  0.00  0.00  0.00
  YS02163301YS02001633    1.00   0.00  0.07  0.00  0.93  0.00  0.00  0.00  0.00  0.00
  YS02163601YS02164001    1.00   0.00  0.04  0.00  0.96  0.00  0.00  0.00  0.00  0.00
  YS02164001YS02001641    1.00   0.00  0.04  0.00  0.96  0.00  0.00  0.00  0.07  0.00
  YS02001641YS02001644    1.00   0.00  0.00  0.00  1.00  0.00  0.00  0.00  0.00  0.00
  YS02001647YS02001649    1.00   0.00  0.08  0.00  0.92  0.00  0.00  0.00  0.01  0.00
  YS02006553YS02006556    1.00   0.00  0.00  0.00  1.00  0.00  0.00  0.00  0.03  0.00
  YS02006556YS02006558    1.00   0.00  0.00  0.00  1.00  0.00  0.00  0.00  0.00  0.00
  YSB6556YSB1171          1.00   0.02  0.03  0.00  0.95  0.00  0.00  0.00  0.00  0.00
  YS02001907YS02006553    1.00   0.00  0.00  0.00  0.99  0.00  0.00  0.00  0.00  0.00
  YS02006558YS02006561    1.00   0.08  0.00  0.00  0.00  0.92  0.00  0.00  0.71  0.00
  YS02001633YS02163601    1.00   0.00  0.00  0.00  1.00  0.00  0.00  0.00  0.20  0.00
  YS02001644YS02001647    1.00   0.00  0.08  0.00  0.92  0.00  0.00  0.00  0.00  0.00
  YS02001745YS02001748    1.00   0.00  0.00  0.00  0.18  0.19  0.00  0.63  0.27  0.00
  YS02001748YS02001751    1.00   0.00  0.00  0.00  0.96  0.04  0.00  0.00  0.28  0.00
  YS02001751YS02001754    1.00   0.00  0.00  0.00  0.91  0.00  0.00  0.09  0.02  0.00
  YS02001754YS02001757    1.00   0.00  0.00  0.00  1.00  0.00  0.00  0.00  0.27  0.00
  YS02001882YS02001884    1.00   0.07  0.00  0.00  0.93  0.00  0.00  0.00  0.00  0.00
  YS02001884YS02001887    1.00   0.03  0.01  0.00  0.95  0.00  0.00  0.00  0.00  0.00
  YS02001890YS02001895    1.00   0.00  0.08  0.00  0.92  0.00  0.00  0.00  0.00  0.00
  YS02001895YS02001898    1.00   0.08  0.00  0.00  0.92  0.00  0.01  0.00  0.00  0.00
  YS02001898YS02001901    1.00   0.07  0.01  0.00  0.92  0.00  0.00  0.00  0.02  0.00
  YS02001901YS02001904    1.00   0.07  0.00  0.00  0.93  0.00  0.00  0.00  0.00  0.00
  YS02001904YS02001907    1.00   0.00  0.07  0.00  0.93  0.00  0.00  0.00  0.00  0.00
  YS02001887YS02001890    1.00   0.00  0.00  0.00  0.99  0.00  0.01  0.00  0.00  0.00
  YS02001652YS02001649    1.00   0.00  0.00  0.00  1.00  0.00  0.00  0.00  0.27  0.00
  YS02001655YS02001652    1.00   0.00  0.00  0.00  0.91  0.00  0.00  0.09  0.02  0.00
  YS02001658YS02001655    1.00   0.00  0.07  0.00  0.90  0.04  0.00  0.00  0.41  0.00
  YS02001661YS02001658    1.00   0.07  0.00  0.00  0.32  0.62  0.00  0.00  0.72  0.00
  YS02001664YS02001661    1.00   0.05  0.00  0.00  0.95  0.00  0.00  0.00  0.86  0.00
  YSB1154YSB6556          1.00   0.05  0.00  0.00  0.95  0.00  0.00  0.00  0.02  0.00
  YSB1174YSB1171          1.00   0.03  0.01  0.00  0.96  0.00  0.00  0.00  0.00  0.00
  YSB1171HS02004479       1.00   0.02  0.00  0.00  0.97  0.00  0.00  0.02  0.13  0.00
  HS02004881HS02006253    1.00   0.03  0.00  0.00  0.57  0.02  0.00  0.38  0.38  0.00
  YS02001793JiankangQianchi    1.00   0.00  0.00  0.00  0.36  0.64  0.00  0.00  0.29  0.00
  YS02001757CaochengTiaoxuchi    1.00   0.00  0.11  0.00  0.89  0.00  0.00  0.00  0.00  0.00
  WSF200WS02003060        1.00   0.00  0.05  0.00  0.51  0.44  0.00  0.00  0.38  0.00
  1                       1.00   0.00  0.00  0.00  0.00  1.00  0.00  0.00  0.42  0.00
  2                       1.00   0.89  0.00  0.00  0.00  0.11  0.00  0.00  0.03  0.00
  3                       1.00   0.44  0.00  0.00  0.00  0.55  0.00  0.00  0.07  0.00
  4                       1.00   1.00  0.00  0.00  0.00  0.00  0.00  0.00  0.00  0.00
  
  
  *************************
  Conduit Surcharge Summary
  *************************
  
  ----------------------------------------------------------------------------
                                                           Hours        Hours 
                         --------- Hours Full --------   Above Full   Capacity
  Conduit                Both Ends  Upstream  Dnstream   Normal Flow   Limited
  ----------------------------------------------------------------------------
  WS02006229WS02006228        0.12      0.16      0.12      1.94         0.12
  WS02006256WS02006235        5.63      5.63      6.53      3.13         0.01
  WS02006252WS02006251        0.25      0.25      0.70      0.58         0.01
  WS02006251WS02006249        0.01      0.01      0.01      0.24         0.01
  WS02006249WS02006248        0.01      0.01      0.01      2.43         0.01
  WS02006247WS02006245        0.01      0.01      0.01      3.12         0.01
  WS02006245WS02006243        0.01      0.01      0.01      0.04         0.01
  WS02006242WS02006240        0.01      0.01      0.12      0.71         0.01
  WS02006240WS02006239        0.01      0.01      0.01      0.07         0.01
  WS02006239WS02006238        0.03      0.03      0.07      0.08         0.01
  WS02006238WS02006235        0.04      0.04      0.23      0.01         0.01
  WS02006235WS02006234        0.01      0.01      0.01      5.52         0.01
  WS02006234WS02006232        0.01      0.01      0.27      0.01         0.01
  WS02006232WS02006231        0.01      0.01      0.27      0.01         0.01
  WS02006231WS02006230        0.01      0.01      0.01      5.74         0.01
  WS02006230WS02006229        0.73      1.35      0.73      5.83         0.73
  WS02006228WS02006109        0.12      0.46      0.12      3.34         0.12
  WS02006111WS02006112        0.01      0.01      2.19      0.01         0.01
  WS02006110WS02006113        0.01      0.01      0.28      0.01         0.01
  WS02006109WS02006110        0.01      0.01      0.46      0.01         0.01
  WS02004404WS02004405        0.01      0.01      0.01      5.50         0.01
  WS02003072WS02003073        0.01      0.01      0.01      1.92         0.01
  YS02001759YS02001757        0.01      0.01      1.17      0.01         0.01
  YS02001649YS02001757        0.01      0.01      1.17      0.01         0.01
  YS02001788YS02001790        0.01      0.01      0.01      0.01         0.01
  YS02001790YS02001791        0.01      0.01      0.13      0.01         0.01
  YS02001791YS02001793        0.13      0.13      0.38      0.01         0.01
  YS02001754YS02001757        0.01      0.01      1.17      0.01         0.01
  YS02001793JiankangQianchi        0.32      0.32      1.85      0.01         0.01
  YS02001757CaochengTiaoxuchi        0.01      0.01      1.17      0.01         0.01
  
  
  ***************
  Pumping Summary
  ***************
  
  ---------------------------------------------------------------------------------------------------------
                                                  Min       Avg       Max     Total     Power    % Time Off
                        Percent   Number of      Flow      Flow      Flow    Volume     Usage    Pump Curve
  Pump                 Utilized   Start-Ups       LPS       LPS       LPS  10^6 ltr     Kw-hr    Low   High
  ---------------------------------------------------------------------------------------------------------
  CC-Pump-1               34.75           5      0.00    115.72    200.00     1.083      4.35    0.0  100.0
  CC-Pump-2               47.51           6      0.00    132.83    200.00     1.683      6.53    0.0  100.0
  JK-Pump-1               70.20           6      0.00    122.80    300.00     2.017     29.70    0.0    0.0
  JK-Pump-2               48.94           5      0.00     66.86    152.74     0.647     12.53    0.0    0.0
  XR-Pump-1               53.18           9      0.00     59.65     95.00     0.884      5.44    0.0    0.0
  XR-Pump-2               65.96           8      0.00     67.10     95.00     1.254      7.09    0.0    0.0
  XR-Pump-3               78.71           7      0.00     63.17     95.00     1.425      8.89    0.0    0.0
  XR-Pump-4               61.69           8      0.00     59.95     95.00     0.997      6.14    0.0    0.0
  

  Analysis begun on:  Thu Jan  6 00:38:13 2022
  Analysis ended on:  Thu Jan  6 00:38:15 2022
  Total elapsed time: 00:00:02