
  EPA STORM WATER MANAGEMENT MODEL - VERSION 5.1 (Build 5.3.0.dev0)
  --------------------------------------------------------------

  WARNING 04: minimum elevation drop used for Conduit WS02004404WS02004405
  WARNING 03: negative offset ignored for Link YS02001904YS02001907
  
  *********************************************************
  NOTE: The summary statistics displayed in this report are
  based on results found at every computational time step,  
  not just on results from each reporting time step.
  *********************************************************
  
  ****************
  Analysis Options
  ****************
  Flow Units ............... LPS
  Process Models:
    Rainfall/Runoff ........ YES
    RDII ................... NO
    Snowmelt ............... NO
    Groundwater ............ NO
    Flow Routing ........... YES
    Ponding Allowed ........ NO
    Water Quality .......... NO
  Infiltration Method ...... HORTON
  Flow Routing Method ...... DYNWAVE
  Surcharge Method ......... EXTRAN
  Starting Date ............ 08/28/2015 08:00:00
  Ending Date .............. 08/28/2015 15:50:00
  Antecedent Dry Days ...... 8.0
  Report Time Step ......... 00:01:00
  Wet Time Step ............ 00:01:00
  Dry Time Step ............ 00:01:00
  Routing Time Step ........ 5.00 sec
  Variable Time Step ....... YES
  Maximum Trials ........... 8
  Number of Threads ........ 4
  Head Tolerance ........... 0.001500 m
  
  
  **************************        Volume         Depth
  Runoff Quantity Continuity     hectare-m            mm
  **************************     ---------       -------
  Total Precipitation ......         2.285         5.003
  Evaporation Loss .........         0.000         0.000
  Infiltration Loss ........         0.569         1.246
  Surface Runoff ...........         0.872         1.908
  Final Storage ............         0.844         1.849
  Continuity Error (%) .....        -0.018
  
  
  **************************        Volume        Volume
  Flow Routing Continuity        hectare-m      10^6 ltr
  **************************     ---------     ---------
  Dry Weather Inflow .......         0.616         6.165
  Wet Weather Inflow .......         0.871         8.710
  Groundwater Inflow .......         0.000         0.000
  RDII Inflow ..............         0.000         0.000
  External Inflow ..........         0.102         1.024
  External Outflow .........         1.205        12.050
  Flooding Loss ............         0.193         1.933
  Evaporation Loss .........         0.000         0.000
  Exfiltration Loss ........         0.000         0.000
  Initial Stored Volume ....         0.076         0.761
  Final Stored Volume ......         0.326         3.262
  Continuity Error (%) .....        -3.520
  
  
  *************************
  Highest Continuity Errors
  *************************
  Node HS02004842 (32.25%)
  Node YS02001884 (26.53%)
  Node JK-storage (-21.01%)
  Node YS02001774 (9.71%)
  Node YSB1171 (8.49%)
  
  
  ***************************
  Time-Step Critical Elements
  ***************************
  Link WS02006252WS02006251 (65.07%)
  Link 3 (23.81%)
  Link WS02006238WS02006235 (3.35%)
  Link WS02006280WS02006229 (2.15%)
  
  
  ********************************
  Highest Flow Instability Indexes
  ********************************
  Link WS02006113WS02006111 (51)
  Link WS02006111WS02006112 (15)
  Link YS02001754YS02001757 (3)
  Link YS02001652YS02001649 (2)
  Link YS02001649YS02001757 (2)
  
  
  *************************
  Routing Time Step Summary
  *************************
  Minimum Time Step           :     0.50 sec
  Average Time Step           :     1.02 sec
  Maximum Time Step           :     5.00 sec
  Percent in Steady State     :    -0.00
  Average Iterations per Step :     2.01
  Percent Not Converging      :     0.01
  
  
  ***************************
  Subcatchment Runoff Summary
  ***************************
  
  ------------------------------------------------------------------------------------------------------------------------------
                            Total      Total      Total      Total     Imperv       Perv      Total       Total     Peak  Runoff
                           Precip      Runon       Evap      Infil     Runoff     Runoff     Runoff      Runoff   Runoff   Coeff
  Subcatchment                 mm         mm         mm         mm         mm         mm         mm    10^6 ltr      LPS
  ------------------------------------------------------------------------------------------------------------------------------
  sub0                       5.00       0.00       0.00       0.35       3.39       0.00       3.39        0.00     1.19   0.677
  sub1                       5.00       0.00       0.00       0.55       3.20       0.00       3.20        0.02     5.94   0.639
  sub2                       5.00       0.00       0.00       1.85       2.25       0.00       2.25        0.02     5.20   0.449
  sub3                       5.00       0.00       0.00       1.85       2.21       0.00       2.21        0.05    10.56   0.443
  sub4                       5.00       0.00       0.00       0.55       3.07       0.00       3.07        0.06    11.71   0.613
  sub5                       5.00       0.00       0.00       0.35       3.34       0.00       3.34        0.04    10.56   0.668
  sub7                       5.00       0.00       0.00       0.45       3.30       0.00       3.30        0.01     3.80   0.659
  sub8                       5.00       0.00       0.00       0.45       3.29       0.00       3.29        0.02     6.65   0.658
  sub9                       5.00       0.00       0.00       0.45       3.29       0.00       3.29        0.02     4.92   0.657
  sub10                      5.00       0.00       0.00       0.40       3.31       0.00       3.31        0.04    10.58   0.662
  sub11                      5.00       0.00       0.00       0.40       3.33       0.00       3.33        0.04    12.55   0.665
  sub12                      5.00       0.00       0.00       0.65       3.16       0.00       3.16        0.03    10.84   0.632
  sub14                      5.00       0.00       0.00       0.45       3.29       0.00       3.29        0.03     9.61   0.657
  sub15                      5.00       0.00       0.00       1.50       2.52       0.00       2.52        0.04    13.01   0.505
  sub16                      5.00       0.00       0.00       1.65       2.43       0.00       2.43        0.03     9.48   0.487
  sub17                      5.00       0.00       0.00       1.60       2.47       0.00       2.47        0.02     7.62   0.493
  sub22                      5.00       0.00       0.00       2.15       2.06       0.00       2.06        0.13    43.01   0.412
  sub23                      5.00       0.00       0.00       1.85       2.28       0.00       2.28        0.11    36.70   0.456
  sub60                      5.00       0.00       0.00       0.60       2.10       0.00       2.10        0.64    56.07   0.420
  sub61                      5.00       0.00       0.00       0.85       2.28       0.00       2.28        0.70    71.27   0.456
  sub62                      5.00       0.00       0.00       0.40       2.44       0.00       2.44        0.75    72.54   0.487
  sub63                      5.00       0.00       0.00       1.45       2.04       0.00       2.04        0.62    66.90   0.409
  sub64                      5.00       0.00       0.00       0.75       2.01       0.00       2.01        0.61    53.21   0.401
  sub65                      5.00       0.00       0.00       0.65       2.03       0.00       2.03        0.62    53.93   0.406
  sub66                      5.00       0.00       0.00       1.45       1.76       0.00       1.76        0.54    48.96   0.352
  sub67                      5.00       0.00       0.00       0.40       2.72       0.00       2.72        0.84    94.36   0.543
  sub68                      5.00       0.00       0.00       0.70       2.44       0.00       2.44        0.75    79.08   0.487
  sub69                      5.00       0.00       0.00       0.75       2.67       0.00       2.67        0.62    79.82   0.533
  sub70                      5.00       2.72       0.00       2.63       3.18       0.00       3.18        0.73    60.96   0.411
  sub71                      5.00       0.00       0.00       0.40       2.32       0.00       2.32        0.55    50.40   0.463
  sub72                      5.00       0.00       0.00       0.35       1.58       0.00       1.58        0.32    23.25   0.317
  sub73                      5.00       3.09       0.00       2.75       3.16       0.00       3.16        0.74    52.00   0.391
  sub74                      5.00       0.00       0.00       3.75       0.81       0.00       0.81        0.32    44.83   0.161
  
  
  ******************
  Node Depth Summary
  ******************
  
  ---------------------------------------------------------------------------------
                                 Average  Maximum  Maximum  Time of Max    Reported
                                   Depth    Depth      HGL   Occurrence   Max Depth
  Node                 Type       Meters   Meters   Meters  days hr:min      Meters
  ---------------------------------------------------------------------------------
  WS02001211           JUNCTION     0.57     0.74     5.58     0  04:31        0.74
  WS02001212           JUNCTION     0.31     0.45     5.51     0  04:31        0.45
  WS02001213           JUNCTION     0.54     0.68     5.45     0  04:32        0.68
  WS02003069           JUNCTION     0.36     0.51     5.10     0  02:56        0.51
  WS02003072           JUNCTION     0.43     0.57     4.95     0  02:56        0.57
  WS02003073           JUNCTION     0.25     0.35     4.41     0  02:57        0.35
  WS02003060           JUNCTION     0.33     0.45     5.38     0  02:55        0.45
  WS02003066           JUNCTION     0.21     0.28     5.84     0  02:57        0.28
  WS02003059           JUNCTION     0.60     0.73     5.42     0  04:32        0.73
  WS02003067           JUNCTION     0.53     0.68     6.00     0  02:57        0.68
  WS02004401           JUNCTION     0.61     0.81     6.81     0  02:54        0.81
  WS02004402           JUNCTION     0.64     0.83     6.79     0  02:54        0.83
  WS02004403           JUNCTION     0.67     0.85     6.78     0  02:54        0.85
  WS02004404           JUNCTION     0.74     0.93     6.78     0  02:55        0.93
  WS02004406           JUNCTION     0.75     0.92     6.75     0  02:55        0.92
  WS02004409           JUNCTION     0.43     0.62     6.39     0  02:57        0.62
  WS02004410           JUNCTION     0.45     0.64     6.36     0  02:57        0.64
  WS02004411           JUNCTION     0.47     0.65     6.33     0  02:57        0.65
  WS02004412           JUNCTION     0.49     0.66     6.30     0  02:57        0.66
  WS02004413           JUNCTION     0.64     0.82     6.29     0  02:57        0.82
  WS02004405           JUNCTION     0.74     0.92     6.77     0  02:55        0.92
  WS02006109           JUNCTION     0.68     0.91     7.52     0  02:52        0.91
  WS02006110           JUNCTION     0.69     0.88     7.46     0  02:52        0.88
  WS02006111           JUNCTION     0.19     0.27     6.98     0  02:52        0.27
  WS02006112           JUNCTION     0.77     0.99     6.87     0  02:53        0.99
  WS02006113           JUNCTION     0.30     0.43     7.32     0  02:53        0.43
  WS02006115           JUNCTION     0.50     0.70     6.84     0  02:54        0.70
  WS02006116           JUNCTION     0.58     0.78     6.82     0  02:54        0.78
  WS02006230           JUNCTION     0.63     0.94     7.69     0  02:52        0.94
  WS02006231           JUNCTION     0.42     0.64     7.76     0  02:52        0.64
  WS02006232           JUNCTION     0.55     0.78     7.82     0  02:51        0.78
  WS02006234           JUNCTION     0.46     0.73     7.88     0  02:51        0.73
  WS02006235           JUNCTION     0.49     0.77     7.93     0  02:51        0.77
  WS02006238           JUNCTION     0.52     0.79     7.94     0  02:51        0.79
  WS02006240           JUNCTION     0.41     0.72     8.01     0  02:51        0.72
  WS02006242           JUNCTION     0.46     0.79     8.06     0  02:51        0.79
  WS02006243           JUNCTION     0.34     0.68     8.10     0  02:51        0.68
  WS02006245           JUNCTION     0.33     0.65     8.14     0  02:51        0.65
  WS02006247           JUNCTION     0.35     0.66     8.16     0  02:51        0.66
  WS02006248           JUNCTION     0.31     0.59     8.18     0  02:51        0.59
  WS02006249           JUNCTION     0.34     0.61     8.20     0  02:50        0.61
  WS02006239           JUNCTION     0.47     0.77     7.98     0  02:51        0.77
  WS02006251           JUNCTION     0.33     0.63     8.30     0  02:50        0.62
  WS02006252           JUNCTION     0.30     0.59     8.83     0  05:20        0.58
  WS02006253           JUNCTION     0.36     0.66     8.30     0  02:50        0.65
  WS02006256           JUNCTION     0.93     1.18     8.11     0  02:51        1.18
  WS02004138           JUNCTION     0.12     0.19     7.44     0  04:30        0.19
  WS02004407           JUNCTION     0.19     0.28     6.59     0  02:55        0.28
  WS02006228           JUNCTION     0.67     0.93     7.58     0  02:52        0.93
  WS02006229           JUNCTION     0.64     0.92     7.61     0  02:52        0.92
  WS02006280           JUNCTION     0.05     0.13     8.40     0  02:20        0.13
  WS02006284           JUNCTION     0.34     0.46     8.86     0  02:20        0.46
  WS02006287           JUNCTION     0.08     0.19     9.14     0  02:19        0.19
  WSF200               JUNCTION     0.19     0.29     5.52     0  02:59        0.29
  HS02004901           JUNCTION     0.11     0.21    10.03     0  02:18        0.21
  HS02004881           JUNCTION     0.01     0.02     9.05     0  02:19        0.02
  HS02004876           JUNCTION     0.03     0.10     9.13     0  02:18        0.10
  HS02004870           JUNCTION     0.01     0.04     9.32     0  02:19        0.04
  HS02004862           JUNCTION     0.01     0.04     9.42     0  02:20        0.04
  HS02004856           JUNCTION     0.07     0.10     9.53     0  02:19        0.10
  HS02004852           JUNCTION     0.01     0.02     9.53     0  02:20        0.02
  HS02004848           JUNCTION     0.01     0.02     9.62     0  02:18        0.02
  HS02004842           JUNCTION     0.32     0.35     9.62     0  02:18        0.35
  HS02004837           JUNCTION     0.03     0.04     9.62     0  02:18        0.04
  HS02004830           JUNCTION     0.04     0.06     9.53     0  02:18        0.06
  HS02004824           JUNCTION     0.02     0.04     9.44     0  02:22        0.04
  HS02004817           JUNCTION     0.42     0.51     9.35     0  02:20        0.51
  HS02004807           JUNCTION     0.11     0.18     9.35     0  02:20        0.18
  HS02004802           JUNCTION     0.15     0.22     9.35     0  02:20        0.22
  HS02004799           JUNCTION     0.10     0.23     9.44     0  02:18        0.23
  HS02004792           JUNCTION     0.02     0.08     9.61     0  02:17        0.08
  HS02004788           JUNCTION     0.02     0.06     9.96     0  02:18        0.06
  HS02004785           JUNCTION     0.03     0.12    10.02     0  02:18        0.12
  HS02004777           JUNCTION     0.13     0.23    10.03     0  02:18        0.23
  HS02004770           JUNCTION     0.10     0.20    10.03     0  02:18        0.20
  HS02004480           JUNCTION     0.06     0.18     9.42     0  02:18        0.18
  HS02004479           JUNCTION     0.10     0.21     9.42     0  02:18        0.21
  HS02004478           JUNCTION     0.05     0.11     9.34     0  02:19        0.11
  YS02001745           JUNCTION     0.07     0.10     7.62     0  03:01        0.10
  YS02001748           JUNCTION     0.22     0.35     7.43     0  06:26        0.35
  YS02001751           JUNCTION     0.40     0.55     7.42     0  06:25        0.54
  YS02001754           JUNCTION     0.65     0.82     7.43     0  06:26        0.82
  YS02001762           JUNCTION     0.84     1.01     7.41     0  06:44        1.00
  YS02001765           JUNCTION     0.79     0.96     7.41     0  06:27        0.96
  YS02001767           JUNCTION     0.76     0.92     7.41     0  06:27        0.92
  YS02001770           JUNCTION     0.75     0.91     7.41     0  06:44        0.91
  YS02001774           JUNCTION     0.82     0.98     7.41     0  06:43        0.98
  YS02001779           JUNCTION     0.57     0.73     7.41     0  06:26        0.72
  YS02001882           JUNCTION     0.26     0.39     7.11     0  02:53        0.39
  YS02001884           JUNCTION     0.35     0.49     7.11     0  02:53        0.49
  YS02001759           JUNCTION     0.87     1.04     7.41     0  06:43        1.04
  YS02001887           JUNCTION     0.43     0.57     7.11     0  02:53        0.57
  YS02001890           JUNCTION     0.46     0.60     7.10     0  02:53        0.60
  YS02001898           JUNCTION     0.23     0.35     7.09     0  02:54        0.35
  YS02001901           JUNCTION     0.34     0.48     7.09     0  02:54        0.48
  YS02001904           JUNCTION     0.32     0.46     7.09     0  02:54        0.46
  YS02001907           JUNCTION     0.65     0.80     7.09     0  02:54        0.80
  YS02001910           JUNCTION     0.44     0.58     7.09     0  02:54        0.58
  YS02001915           JUNCTION     0.24     0.37     7.09     0  02:53        0.37
  YS02001918           JUNCTION     0.07     0.08     7.15     0  03:03        0.08
  YS02001619           JUNCTION     0.36     0.49     7.42     0  06:45        0.48
  YS02001629           JUNCTION     0.70     0.86     7.41     0  06:45        0.86
  YS02001641           JUNCTION     0.81     0.98     7.41     0  06:44        0.98
  YS02001644           JUNCTION     0.81     0.98     7.41     0  06:44        0.98
  YS02001652           JUNCTION     0.66     0.83     7.42     0  06:44        0.83
  YS02001655           JUNCTION     0.43     0.58     7.43     0  06:45        0.58
  YS02001920           JUNCTION     0.16     0.19     7.19     0  03:03        0.19
  YS02001923           JUNCTION     0.06     0.07     7.33     0  03:02        0.07
  YS02001926           JUNCTION     0.13     0.16     7.60     0  03:02        0.16
  YS02001929           JUNCTION     0.06     0.07     7.77     0  03:01        0.07
  YS02001658           JUNCTION     0.17     0.28     7.43     0  06:44        0.28
  YS02001661           JUNCTION     0.13     0.18     7.59     0  02:45        0.18
  YS02001664           JUNCTION     0.06     0.10     8.03     0  02:45        0.10
  YS02001622           JUNCTION     0.38     0.50     7.41     0  06:45        0.50
  YS02001633           JUNCTION     0.79     0.96     7.41     0  06:44        0.95
  YS02001649           JUNCTION     0.85     1.02     7.41     0  06:44        1.02
  YS02001757           JUNCTION     0.97     1.15     7.41     0  06:43        1.15
  YS02001895           JUNCTION     0.22     0.35     7.10     0  02:54        0.35
  YS02001625           JUNCTION     0.66     0.81     7.42     0  06:45        0.81
  YS02163301           JUNCTION     0.73     0.90     7.41     0  06:44        0.89
  YS02163601           JUNCTION     0.84     1.01     7.41     0  06:45        1.01
  YS02164001           JUNCTION     0.79     0.96     7.41     0  06:45        0.96
  YS02001647           JUNCTION     0.64     0.80     7.41     0  06:44        0.80
  YSB1154              JUNCTION     0.23     0.36     9.42     0  02:19        0.36
  YSB6556              JUNCTION     0.13     0.25     9.42     0  02:18        0.25
  YSB1174              JUNCTION     0.19     0.31     9.42     0  02:19        0.31
  YSB1171              JUNCTION     0.38     0.52     9.42     0  02:18        0.52
  YS02006553           JUNCTION     0.65     0.80     7.09     0  02:54        0.80
  YS02006561           JUNCTION     0.12     0.19     6.85     0  02:54        0.19
  YS02006556           JUNCTION     0.63     0.77     7.08     0  02:54        0.77
  YS02006558           JUNCTION     0.67     0.82     7.08     0  02:54        0.82
  YS02001783           JUNCTION     0.21     0.34     6.48     0  02:55        0.34
  YS02001784           JUNCTION     0.25     0.37     6.44     0  02:55        0.37
  YS02001786           JUNCTION     0.21     0.32     6.35     0  02:55        0.32
  YS02001788           JUNCTION     0.15     0.23     6.21     0  02:56        0.23
  YS02001790           JUNCTION     0.18     0.28     5.93     0  02:56        0.28
  YS02001791           JUNCTION     0.12     0.19     5.66     0  03:04        0.19
  YS02001793           JUNCTION     0.09     0.81     5.64     0  03:45        0.76
  WS02004139           JUNCTION     0.51     0.68     5.59     0  04:30        0.68
  WSC                  OUTFALL      0.25     0.35     1.02     0  02:57        0.35
  3                    OUTFALL      0.05     0.18     6.18     0  02:51        0.18
  4                    OUTFALL      0.01     0.11     7.11     0  02:51        0.11
  5                    OUTFALL      0.00     0.00     5.00     0  00:00        0.00
  JK-storage           STORAGE      0.78     4.78     5.58     0  03:45        4.76
  CC-storage           STORAGE      0.23     0.40     7.40     0  06:42        0.40
  XR-storage           STORAGE      7.56     7.72     5.72     0  01:33        7.72
  
  
  *******************
  Node Inflow Summary
  *******************
  
  -------------------------------------------------------------------------------------------------
                                  Maximum  Maximum                  Lateral       Total        Flow
                                  Lateral    Total  Time of Max      Inflow      Inflow     Balance
                                   Inflow   Inflow   Occurrence      Volume      Volume       Error
  Node                 Type           LPS      LPS  days hr:min    10^6 ltr    10^6 ltr     Percent
  -------------------------------------------------------------------------------------------------
  WS02001211           JUNCTION      7.35   368.67     0  04:30       0.207        4.63       0.660
  WS02001212           JUNCTION      0.00   356.26     0  04:31           0         4.6       0.320
  WS02001213           JUNCTION      0.00   352.92     0  04:31           0        4.58       0.446
  WS02003069           JUNCTION      0.32   748.62     0  02:55     0.00902        10.6       0.227
  WS02003072           JUNCTION      0.00   748.49     0  02:56           0        10.5       0.290
  WS02003073           JUNCTION      1.82   750.23     0  02:57      0.0514        10.6       0.315
  WS02003060           JUNCTION     16.53   748.30     0  02:55       0.466        10.6       0.222
  WS02003066           JUNCTION      0.00   477.45     0  02:57           0        5.58       0.070
  WS02003059           JUNCTION      0.00   351.66     0  04:32           0        4.57       0.738
  WS02003067           JUNCTION      0.00   477.41     0  02:57           0        5.59       0.153
  WS02004401           JUNCTION      0.00   480.48     0  02:53           0        5.81       0.349
  WS02004402           JUNCTION      0.00   480.11     0  02:54           0        5.79       0.331
  WS02004403           JUNCTION      0.00   479.83     0  02:54           0        5.77       0.303
  WS02004404           JUNCTION      0.16   479.92     0  02:54     0.00457        5.75       0.231
  WS02004406           JUNCTION      0.00   479.90     0  02:55           0        5.72       0.564
  WS02004409           JUNCTION      0.00   479.73     0  02:55           0        5.68       0.254
  WS02004410           JUNCTION      0.00   479.00     0  02:56           0        5.67       0.288
  WS02004411           JUNCTION      0.00   478.33     0  02:56           0        5.65       0.298
  WS02004412           JUNCTION      0.00   477.85     0  02:56           0        5.64       0.327
  WS02004413           JUNCTION      0.00   477.56     0  02:57           0        5.62       0.492
  WS02004405           JUNCTION      0.04   479.93     0  02:55     0.00107        5.74       0.345
  WS02006109           JUNCTION      1.23   480.89     0  02:52      0.0347         5.9       0.300
  WS02006110           JUNCTION      0.00   480.89     0  02:52           0        5.88       0.322
  WS02006111           JUNCTION      0.00   496.30     0  02:52           0        5.85       0.070
  WS02006112           JUNCTION      7.62   486.53     0  02:52      0.0212        5.87       0.477
  WS02006113           JUNCTION      0.00   481.19     0  02:52           0        5.86       0.154
  WS02006115           JUNCTION      0.00   482.78     0  02:52           0        5.84       0.318
  WS02006116           JUNCTION      0.00   481.37     0  02:52           0        5.82       0.304
  WS02006230           JUNCTION     10.28   390.92     0  06:58        0.29        5.13       0.218
  WS02006231           JUNCTION      0.00   381.07     0  06:58           0        4.86       0.262
  WS02006232           JUNCTION      0.00   381.16     0  06:58           0        4.87       0.316
  WS02006234           JUNCTION      0.00   381.98     0  04:12           0        4.88       0.145
  WS02006235           JUNCTION      0.00   384.93     0  04:12           0        4.93       0.213
  WS02006238           JUNCTION      0.00   318.84     0  07:00           0        3.17       0.222
  WS02006240           JUNCTION      0.00   323.63     0  04:31           0        3.16       0.343
  WS02006242           JUNCTION      0.00   333.76     0  04:31           0        3.16       0.439
  WS02006243           JUNCTION      0.00   343.41     0  06:51           0        3.14      -0.341
  WS02006245           JUNCTION      0.00   348.51     0  06:51           0        3.15       0.446
  WS02006247           JUNCTION      0.00   353.14     0  06:51           0        3.16       0.225
  WS02006248           JUNCTION      0.00   357.48     0  06:51           0        3.16       0.024
  WS02006249           JUNCTION      0.00   409.18     0  02:50           0        3.28       0.453
  WS02006239           JUNCTION      0.00   318.69     0  07:00           0        3.16       0.231
  WS02006251           JUNCTION      0.08   411.42     0  02:50     0.00217        3.33       0.244
  WS02006252           JUNCTION      0.00   400.00     0  06:50           0        3.17       0.015
  WS02006253           JUNCTION      1.19    32.57     0  02:18     0.00274        0.16       2.555
  WS02006256           JUNCTION      0.00   497.44     0  02:51           0        3.21       0.089
  WS02004138           JUNCTION      0.00   379.97     0  04:30           0        4.45       0.077
  WS02004407           JUNCTION      0.00   479.80     0  02:55           0        5.69       0.118
  WS02006228           JUNCTION      0.00   479.66     0  02:52           0        5.88       0.233
  WS02006229           JUNCTION      0.00   479.66     0  02:51           0        5.89       0.207
  WS02006280           JUNCTION      0.00   170.36     0  02:20           0       0.767       0.009
  WS02006284           JUNCTION      0.10   170.35     0  02:19      0.0027       0.768       0.139
  WS02006287           JUNCTION      0.00   170.27     0  02:19           0       0.766       0.094
  WSF200               JUNCTION      0.00   477.46     0  02:58           0        5.58       0.062
  HS02004901           JUNCTION      9.48     9.48     0  02:11      0.0255      0.0256       7.366
  HS02004881           JUNCTION      3.80    31.69     0  02:18      0.0111       0.116       0.195
  HS02004876           JUNCTION      5.94    28.20     0  02:19      0.0213       0.105       0.498
  HS02004870           JUNCTION      6.65    22.41     0  02:19       0.021      0.0842       0.126
  HS02004862           JUNCTION      5.40    16.26     0  02:19      0.0266      0.0634       0.265
  HS02004856           JUNCTION      4.92    10.92     0  02:18      0.0158      0.0383       3.912
  HS02004852           JUNCTION      0.00     6.34     0  02:19           0      0.0225       0.219
  HS02004848           JUNCTION     10.56    10.56     0  02:21      0.0498      0.0498       0.086
  HS02004842           JUNCTION      0.00     4.58     0  02:31           0      0.0403      47.603
  HS02004837           JUNCTION     16.93    20.89     0  02:17       0.216       0.243       0.336
  HS02004830           JUNCTION      0.15    21.03     0  02:18     0.00423       0.233       0.531
  HS02004824           JUNCTION     11.76    32.64     0  02:21      0.0653       0.297       0.181
  HS02004817           JUNCTION      0.60    33.24     0  02:22      0.0169       0.314       5.608
  HS02004807           JUNCTION     12.55    44.57     0  02:20      0.0386       0.336       1.274
  HS02004802           JUNCTION      0.00    44.70     0  02:21           0       0.331       1.237
  HS02004799           JUNCTION      9.61   107.08     0  02:17      0.0313       0.388       0.582
  HS02004792           JUNCTION     43.29    97.77     0  02:17       0.138       0.357       0.116
  HS02004788           JUNCTION     14.68    56.88     0  02:18      0.0905        0.22       0.179
  HS02004785           JUNCTION      0.15    42.77     0  02:17     0.00423       0.132       0.367
  HS02004777           JUNCTION      0.03    43.27     0  02:16    0.000846       0.132       4.084
  HS02004770           JUNCTION     36.70    44.74     0  02:14       0.109       0.133       2.390
  HS02004480           JUNCTION      0.00   126.14     0  02:18           0       0.451       0.158
  HS02004479           JUNCTION      0.00    19.53     0  02:19           0      0.0751       0.980
  HS02004478           JUNCTION      0.00   170.27     0  02:19           0       0.767       0.083
  YS02001745           JUNCTION     56.08    56.08     0  03:01       0.637       0.637       0.119
  YS02001748           JUNCTION      0.04   136.79     0  04:24     0.00127         0.9       0.305
  YS02001751           JUNCTION      0.01   167.99     0  04:08     0.00031       0.898       0.953
  YS02001754           JUNCTION      0.26   136.21     0  04:07     0.00733       0.832       1.998
  YS02001762           JUNCTION      0.00   107.09     0  03:17           0         0.7       2.855
  YS02001765           JUNCTION      0.00    89.66     0  03:21           0       0.699       3.173
  YS02001767           JUNCTION      0.54    93.15     0  03:15      0.0151       0.715       4.464
  YS02001770           JUNCTION     72.70    97.07     0  03:16       0.753       0.867       3.080
  YS02001774           JUNCTION      0.00    38.93     0  02:24           0       0.228      10.749
  YS02001779           JUNCTION      0.01    26.07     0  03:16    0.000141      0.0915      12.360
  YS02001882           JUNCTION      0.00     3.43     0  02:10           0     0.00433      56.376
  YS02001884           JUNCTION      0.00    10.11     0  02:09           0      0.0174      36.118
  YS02001759           JUNCTION     71.31   172.25     0  03:17       0.705        1.37       1.607
  YS02001887           JUNCTION     94.81    94.81     0  02:43        0.85       0.859       0.810
  YS02001890           JUNCTION      0.00    94.34     0  02:45           0       0.837       0.912
  YS02001898           JUNCTION      0.00    93.93     0  02:48           0       0.826       0.242
  YS02001901           JUNCTION      0.00    93.89     0  02:47           0       0.826       0.640
  YS02001904           JUNCTION      0.00    93.45     0  02:49           0       0.826       0.596
  YS02001907           JUNCTION      0.00   169.03     0  02:56           0        1.76       1.245
  YS02001910           JUNCTION      0.00    76.75     0  03:00           0       0.944       1.052
  YS02001915           JUNCTION     50.42    76.31     0  03:01       0.548       0.948       0.450
  YS02001918           JUNCTION      0.00    26.12     0  03:03           0       0.402       0.245
  YS02001619           JUNCTION     48.96    48.96     0  02:58       0.539       0.539       0.753
  YS02001629           JUNCTION      0.00    75.42     0  04:09           0       0.509       2.804
  YS02001641           JUNCTION      0.00   111.03     0  03:13           0        1.05       1.805
  YS02001644           JUNCTION     53.25   167.28     0  03:13       0.611        1.64       1.425
  YS02001652           JUNCTION      0.00    95.71     0  04:05           0       0.792       2.162
  YS02001655           JUNCTION      0.15   142.73     0  04:10     0.00434       0.803       1.422
  YS02001920           JUNCTION      2.87    26.14     0  03:02      0.0809       0.404       0.468
  YS02001923           JUNCTION      0.04    23.27     0  03:02     0.00106       0.323       0.082
  YS02001926           JUNCTION      0.05    23.29     0  03:01     0.00147       0.324       0.590
  YS02001929           JUNCTION     23.25    23.25     0  03:01       0.323       0.323       0.078
  YS02001658           JUNCTION      0.00   106.99     0  04:11           0       0.801       0.224
  YS02001661           JUNCTION      0.00    66.90     0  02:45           0       0.618       0.113
  YS02001664           JUNCTION     66.90    66.90     0  02:45       0.619       0.619       0.026
  YS02001622           JUNCTION      0.00    58.38     0  03:16           0       0.536       2.275
  YS02001633           JUNCTION     54.13   115.60     0  03:13        0.63         1.1       2.588
  YS02001649           JUNCTION      0.00   271.00     0  03:18           0        2.36       1.452
  YS02001757           JUNCTION      0.00   433.62     0  03:04           0        4.27       2.165
  YS02001895           JUNCTION      0.00    93.97     0  02:45           0        0.83       0.421
  YS02001625           JUNCTION      0.00    73.31     0  04:07           0       0.533       5.257
  YS02163301           JUNCTION      0.00    61.82     0  03:14           0       0.494       4.152
  YS02163601           JUNCTION      0.11   112.44     0  03:13      0.0031        1.07       2.647
  YS02164001           JUNCTION      0.00   114.80     0  03:13           0        1.05       1.683
  YS02001647           JUNCTION      0.00   163.05     0  03:12           0         1.6       1.322
  YSB1154              JUNCTION     10.56    10.56     0  02:16      0.0378      0.0392       3.819
  YSB6556              JUNCTION      0.00    10.47     0  02:18           0      0.0403       3.191
  YSB1174              JUNCTION     10.84    10.84     0  02:10      0.0276      0.0286       4.694
  YSB1171              JUNCTION      0.00    19.47     0  02:18           0      0.0745       9.273
  YS02006553           JUNCTION      0.00   169.06     0  02:57           0        1.75       0.809
  YS02006561           JUNCTION      0.00   248.21     0  02:54           0        2.47       0.024
  YS02006556           JUNCTION      0.00   169.13     0  02:57           0        1.75       0.582
  YS02006558           JUNCTION     79.96   248.22     0  02:54       0.774         2.5       0.177
  YS02001783           JUNCTION      0.00   248.20     0  02:54           0        2.47       0.056
  YS02001784           JUNCTION      1.06   249.26     0  02:55      0.0299         2.5       0.093
  YS02001786           JUNCTION      0.06   249.30     0  02:55     0.00159         2.5       0.090
  YS02001788           JUNCTION      0.07   249.36     0  02:55       0.002         2.5       0.052
  YS02001790           JUNCTION      0.15   249.51     0  02:56     0.00437         2.5       0.065
  YS02001791           JUNCTION      0.00   249.51     0  02:56           0         2.5       0.031
  YS02001793           JUNCTION      0.00   288.51     0  03:52           0         2.5       0.018
  WS02004139           JUNCTION      0.32   378.60     0  04:30     0.00905        4.45       0.721
  WSC                  OUTFALL       0.00   750.23     0  02:57           0        10.5       0.000
  3                    OUTFALL       0.00   412.66     0  02:51           0        1.42       0.000
  4                    OUTFALL       0.00   113.34     0  02:51           0       0.111       0.000
  5                    OUTFALL       0.00     0.00     0  00:00           0           0       0.000 ltr
  JK-storage           STORAGE       0.00   619.41     0  03:52           0        2.65     -17.364
  CC-storage           STORAGE       0.00   409.38     0  03:02           0        3.98       0.406
  XR-storage           STORAGE     291.43   291.43     0  02:52        6.71         7.3      -0.003
  
  
  **********************
  Node Surcharge Summary
  **********************
  
  Surcharging occurs when water rises above the top of the highest conduit.
  ---------------------------------------------------------------------
                                               Max. Height   Min. Depth
                                   Hours       Above Crown    Below Rim
  Node                 Type      Surcharged         Meters       Meters
  ---------------------------------------------------------------------
  WS02006109           JUNCTION        0.72          0.086        1.734
  WS02006232           JUNCTION        0.61          0.077        1.403
  WS02006234           JUNCTION        0.05          0.006        1.234
  WS02006235           JUNCTION        0.21          0.056        1.234
  WS02006238           JUNCTION        0.38          0.075        1.355
  WS02006240           JUNCTION        0.06          0.011        1.379
  WS02006242           JUNCTION        0.28          0.060        0.760
  WS02006239           JUNCTION        0.13          0.029        1.261
  WS02006252           JUNCTION        0.93          0.185        0.915
  WS02006228           JUNCTION        0.62          0.100        2.100
  YS02001762           JUNCTION        0.18          0.006        1.144
  YS02001759           JUNCTION        1.22          0.042        1.168
  YS02001649           JUNCTION        0.51          0.019        1.031
  YS02001757           JUNCTION        5.09          0.148        1.062
  YS02163601           JUNCTION        0.29          0.013        1.067
  
  
  *********************
  Node Flooding Summary
  *********************
  
  Flooding refers to all water that overflows a node, whether it ponds or not.
  --------------------------------------------------------------------------
                                                             Total   Maximum
                                 Maximum   Time of Max       Flood    Ponded
                        Hours       Rate    Occurrence      Volume     Depth
  Node                 Flooded       LPS   days hr:min    10^6 ltr    Meters
  --------------------------------------------------------------------------
  XR-storage              4.36    285.41      0  02:30       1.933     0.000
  
  
  **********************
  Storage Volume Summary
  **********************
  
  --------------------------------------------------------------------------------------------------
                         Average     Avg  Evap Exfil       Maximum     Max    Time of Max    Maximum
                          Volume    Pcnt  Pcnt  Pcnt        Volume    Pcnt     Occurrence    Outflow
  Storage Unit           1000 m3    Full  Loss  Loss       1000 m3    Full    days hr:min        LPS
  --------------------------------------------------------------------------------------------------
  JK-storage               0.039      13     0     0         0.240      82       0  03:45     497.44
  CC-storage               0.651       4     0     0         1.105       7       0  06:42     400.00
  XR-storage               0.907      98     0     0         0.926     100       0  01:33     379.97
  
  
  ***********************
  Outfall Loading Summary
  ***********************
  
  -----------------------------------------------------------
                         Flow       Avg       Max       Total
                         Freq      Flow      Flow      Volume
  Outfall Node           Pcnt       LPS       LPS    10^6 ltr
  -----------------------------------------------------------
  WSC                   99.99    426.48    750.23      10.517
  3                     55.75    143.24    412.66       1.421
  4                     15.22     39.15    113.34       0.111
  5                      0.00      0.00      0.00       0.000
  -----------------------------------------------------------
  System                42.74    608.86   1175.89      12.050
  
  
  ********************
  Link Flow Summary
  ********************
  
  -----------------------------------------------------------------------------
                                 Maximum  Time of Max   Maximum    Max/    Max/
                                  |Flow|   Occurrence   |Veloc|    Full    Full
  Link                 Type          LPS  days hr:min     m/sec    Flow   Depth
  -----------------------------------------------------------------------------
  WS02003066WSF200     CONDUIT    477.46     0  02:58      2.67    0.08    0.22
  WS02006287WS02006284 CONDUIT    170.26     0  02:19      1.52    0.08    0.20
  WS02006284WS02006280 CONDUIT    170.36     0  02:20      1.76    0.07    0.18
  WS02006280WS02006229 CONDUIT    170.36     0  02:20      2.83    0.04    0.13
  WS02006229WS02006228 CONDUIT    479.66     0  02:52      0.95    1.59    1.00
  WS02006256WS02006235 CONDUIT    166.25     0  00:01      2.58    1.76    1.00
  WS02006253WS02006251 CONDUIT     32.55     0  02:19      0.45    0.10    0.91
  WS02006252WS02006251 CONDUIT    400.39     0  06:50      3.19    1.47    1.00
  WS02006251WS02006249 CONDUIT    409.18     0  02:50      1.17    1.18    0.88
  WS02006249WS02006248 CONDUIT    357.48     0  06:51      1.17    1.96    0.84
  WS02006248WS02006247 CONDUIT    353.14     0  06:51      1.14    0.77    0.89
  WS02006247WS02006245 CONDUIT    348.51     0  06:51      1.11    2.76    0.93
  WS02006245WS02006243 CONDUIT    343.41     0  06:51      1.15    1.02    0.94
  WS02006243WS02006242 CONDUIT    333.76     0  04:31      1.01    0.71    0.99
  WS02006242WS02006240 CONDUIT    323.63     0  04:31      0.96    1.29    1.00
  WS02006240WS02006239 CONDUIT    318.69     0  07:00      0.99    1.00    1.00
  WS02006239WS02006238 CONDUIT    318.84     0  07:00      0.88    1.02    1.00
  WS02006238WS02006235 CONDUIT    318.90     0  07:00      1.25    0.71    1.00
  WS02006235WS02006234 CONDUIT    381.98     0  04:12      1.04    4.03    1.00
  WS02006234WS02006232 CONDUIT    381.16     0  06:58      1.13    0.77    1.00
  WS02006232WS02006231 CONDUIT    381.07     0  06:58      1.05    0.80    0.95
  WS02006231WS02006230 CONDUIT    380.64     0  06:58      1.37    5.77    0.86
  WS02006230WS02006229 CONDUIT    390.68     0  06:58      1.02    8.69    1.00
  WS02006228WS02006109 CONDUIT    479.66     0  02:52      0.95    2.10    1.00
  WS02006116WS02004401 CONDUIT    480.48     0  02:53      0.73    0.66    0.79
  WS02006115WS02006116 CONDUIT    481.37     0  02:52      0.81    0.62    0.71
  WS02006113WS02006111 CONDUIT    496.30     0  02:52      2.37    0.59    0.44
  WS02006112WS02006115 CONDUIT    482.78     0  02:52      0.69    0.28    0.84
  WS02006111WS02006112 CONDUIT    484.05     0  02:52      1.37    0.23    0.66
  WS02006110WS02006113 CONDUIT    481.19     0  02:52      1.16    0.44    0.77
  WS02006109WS02006110 CONDUIT    480.89     0  02:52      0.96    0.92    0.98
  WS02004411WS02004412 CONDUIT    477.85     0  02:56      0.87    0.68    0.66
  WS02004401WS02004402 CONDUIT    480.11     0  02:54      0.77    0.58    0.82
  WS02004413WS02003067 CONDUIT    477.41     0  02:57      1.04    0.20    0.57
  WS02004412WS02004413 CONDUIT    477.56     0  02:57      0.76    0.32    0.74
  WS02004410WS02004411 CONDUIT    478.33     0  02:56      0.89    0.65    0.65
  WS02004409WS02004410 CONDUIT    479.00     0  02:56      0.92    0.62    0.63
  WS02004407WS02004409 CONDUIT    479.73     0  02:55      1.40    0.17    0.45
  WS02004406WS02004407 CONDUIT    479.80     0  02:55      0.97    0.21    0.60
  WS02004405WS02004406 CONDUIT    479.90     0  02:55      0.66    0.95    0.92
  WS02004404WS02004405 CONDUIT    479.89     0  02:55      0.84    4.70    0.92
  WS02004403WS02004404 CONDUIT    479.76     0  02:54      0.74    0.35    0.89
  WS02004402WS02004403 CONDUIT    479.83     0  02:54      0.75    0.69    0.84
  WS02004139WS02001211 CONDUIT    361.33     0  04:30      0.69    0.46    0.55
  WS02004138WS02004139 CONDUIT    378.28     0  04:30      2.94    0.08    0.41
  WS02003067WS02003066 CONDUIT    477.45     0  02:57      1.13    0.15    0.40
  WS02001213WS02003059 CONDUIT    351.66     0  04:32      0.65    0.58    0.70
  WS02001212WS02001213 CONDUIT    352.92     0  04:31      1.19    0.54    0.41
  WS02001211WS02001212 CONDUIT    356.26     0  04:31      0.73    0.27    0.60
  WS02003072WS02003073 CONDUIT    748.41     0  02:57      1.59    1.62    0.43
  WS02003069WS02003072 CONDUIT    748.49     0  02:56      1.51    0.36    0.45
  WS02003060WS02003069 CONDUIT    748.30     0  02:55      1.77    0.29    0.40
  WS02003059WS02003060 CONDUIT    350.84     0  04:32      0.78    0.23    0.59
  HS02004901HS02004770 CONDUIT      8.45     0  02:16      0.04    0.03    0.30
  HS02004876HS02004881 CONDUIT     28.25     0  02:19      0.49    0.30    0.08
  HS02004870HS02004876 CONDUIT     22.39     0  02:19      0.34    0.01    0.09
  HS02004842HS02004848 CONDUIT      4.58     0  02:31      0.02    0.00    0.27
  HS02004837HS02004842 CONDUIT      4.74     0  02:31      0.41    0.00    0.28
  HS02004830HS02004837 CONDUIT     20.88     0  02:18      0.42    0.02    0.07
  HS02004824HS02004830 CONDUIT     21.03     0  02:19      0.46    0.03    0.07
  HS02004817HS02004824 CONDUIT     32.64     0  02:22      0.17    0.01    0.39
  HS02004770HS02004777 CONDUIT     43.24     0  02:16      0.20    0.08    0.31
  HS02004799HS02004480 CONDUIT    106.87     0  02:17      0.54    0.14    0.28
  HS02004792HS02004799 CONDUIT     97.71     0  02:17      0.62    0.06    0.23
  HS02004788HS02004792 CONDUIT     56.82     0  02:18      0.77    0.04    0.10
  HS02004785HS02004788 CONDUIT     42.61     0  02:18      0.47    0.32    0.13
  HS02004777HS02004785 CONDUIT     42.62     0  02:17      0.24    0.05    0.25
  HS02004480HS02004478 CONDUIT    126.14     0  02:19      0.89    0.53    0.20
  HS02004479HS02004480 CONDUIT     19.69     0  02:20      0.16    0.02    0.28
  HS02004862HS02004870 CONDUIT     16.22     0  02:20      0.43    0.02    0.05
  HS02004848HS02004852 CONDUIT      6.34     0  02:19      0.28    0.01    0.03
  HS02004856HS02004862 CONDUIT     10.89     0  02:19      0.31    0.01    0.05
  HS02004852HS02004856 CONDUIT      6.30     0  02:20      0.10    0.01    0.09
  HS02004802HS02004478 CONDUIT     44.94     0  02:22      0.27    0.04    0.24
  HS02004478WS02006287 CONDUIT    170.27     0  02:19      1.21    0.05    0.16
  HS02004817HS02004807 CONDUIT     33.60     0  02:24      0.10    0.02    0.49
  HS02004807HS02004802 CONDUIT     44.70     0  02:21      0.23    0.09    0.28
  YS02001759YS02001757 CONDUIT    153.33     0  03:19      0.20    0.11    1.00
  YS02001762YS02001759 CONDUIT    112.26     0  03:17      0.17    0.13    1.00
  YS02001765YS02001762 CONDUIT    107.09     0  03:17      0.22    0.10    0.98
  YS02001770YS02001767 CONDUIT     92.62     0  03:15      0.34    0.37    0.92
  YS02001774YS02001770 CONDUIT     38.93     0  02:24      0.13    0.02    0.93
  YS02001779YS02001774 CONDUIT     26.55     0  03:23      0.07    0.01    0.85
  YS02001649YS02001757 CONDUIT    281.00     0  03:20      0.36    0.17    1.00
  YS02001767YS02001765 CONDUIT     89.66     0  03:21      0.26    0.11    0.94
  YS02006561YS02001783 CONDUIT    248.20     0  02:54      1.68    0.13    0.34
  YS02001783YS02001784 CONDUIT    248.20     0  02:55      1.14    0.34    0.45
  YS02001784YS02001785 CONDUIT    249.24     0  02:55      1.20    0.58    0.43
  YS02001788YS02001790 CONDUIT    249.36     0  02:56      1.77    0.18    0.32
  YS02001790YS02001791 CONDUIT    249.51     0  02:56      2.03    0.27    0.29
  YS02001791YS02001793 CONDUIT    249.51     0  02:56      4.08    0.11    0.59
  YS02001910YS02001907 CONDUIT     76.83     0  03:01      0.49    0.04    0.69
  YS02001786YS02001788 CONDUIT    249.29     0  02:55      1.63    0.48    0.34
  YS02001915YS02001910 CONDUIT     76.75     0  03:00      0.44    0.04    0.47
  YS02001918YS02001915 CONDUIT     26.11     0  03:03      0.44    0.01    0.23
  YS02001923YS02001920 CONDUIT     23.27     0  03:02      0.39    0.01    0.13
  YS02001926YS02001923 CONDUIT     23.23     0  03:02      0.44    0.03    0.12
  YS02001929YS02001926 CONDUIT     23.23     0  03:01      0.46    0.01    0.11
  YS02001920YS02001918 CONDUIT     26.12     0  03:03      0.41    0.03    0.13
  YS02001629YS02163301 CONDUIT     61.82     0  03:14      0.10    0.08    0.88
  YS02001619YS02001622 CONDUIT     58.38     0  03:16      0.62    0.09    0.50
  YS02001622YS02001625 CONDUIT     61.62     0  03:16      0.22    0.03    0.66
  YS02001625YS02001629 CONDUIT     75.42     0  04:09      0.23    0.04    0.64
  YS02163301YS02001633 CONDUIT     65.82     0  03:13      0.11    0.06    0.93
  YS02163601YS02164001 CONDUIT    114.80     0  03:13      0.16    0.10    0.98
  YS02164001YS02001641 CONDUIT    111.03     0  03:13      0.16    0.15    0.97
  YS02001641YS02001644 CONDUIT    118.20     0  03:13      0.16    0.38    0.98
  YS02001647YS02001649 CONDUIT    174.11     0  03:02      0.26    0.09    0.90
  YS02006553YS02006556 CONDUIT    169.13     0  02:57      0.26    0.14    0.77
  YS02006556YS02006558 CONDUIT    169.27     0  03:02      0.25    0.13    0.80
  YSB6556YSB1171       CONDUIT     10.60     0  02:21      0.05    0.01    0.55
  YS02001907YS02006553 CONDUIT    169.06     0  02:57      0.22    0.20    0.87
  YS02006558YS02006561 CONDUIT    248.21     0  02:54      2.16    0.55    0.43
  YS02001633YS02163601 CONDUIT    112.33     0  03:13      0.16    0.12    0.97
  YS02001644YS02001647 CONDUIT    163.05     0  03:12      0.25    0.10    0.89
  YS02001745YS02001748 CONDUIT     56.07     0  03:01      1.34    0.02    0.17
  YS02001748YS02001751 CONDUIT    167.98     0  04:08      1.04    0.08    0.43
  YS02001751YS02001754 CONDUIT     71.89     0  02:35      0.94    0.03    0.66
  YS02001754YS02001757 CONDUIT    160.45     0  04:13      0.33    0.06    0.91
  YS02001882YS02001884 CONDUIT      3.43     0  02:10      0.06    0.00    0.41
  YS02001884YS02001887 CONDUIT     10.11     0  02:09      0.06    0.01    0.50
  YS02001890YS02001895 CONDUIT     93.97     0  02:45      0.26    0.04    0.48
  YS02001895YS02001898 CONDUIT     93.93     0  02:48      0.48    0.16    0.34
  YS02001898YS02001901 CONDUIT     93.89     0  02:47      0.30    0.06    0.42
  YS02001901YS02001904 CONDUIT     93.45     0  02:49      0.26    0.14    0.47
  YS02001904YS02001907 CONDUIT     93.61     0  02:50      0.18    0.03    0.63
  YS02001887YS02001890 CONDUIT     94.34     0  02:45      0.21    0.16    0.56
  YS02001652YS02001649 CONDUIT    146.68     0  04:13      0.33    0.07    0.91
  YS02001655YS02001652 CONDUIT     87.15     0  03:16      1.02    0.04    0.69
  YS02001658YS02001655 CONDUIT    142.58     0  04:10      1.19    0.06    0.41
  YS02001661YS02001658 CONDUIT     66.90     0  02:45      1.35    0.03    0.17
  YS02001664YS02001661 CONDUIT     66.90     0  02:45      0.99    0.02    0.14
  YSB1154YSB6556       CONDUIT     10.47     0  02:18      0.19    0.02    0.44
  YSB1174YSB1171       CONDUIT      9.83     0  02:11      0.05    0.02    0.55
  YSB1171HS02004479    CONDUIT     19.53     0  02:19      0.54    0.01    0.43
  HS02004881HS02006253 CONDUIT     31.68     0  02:19      1.53    0.01    0.24
  YS02001793JiankangQianchi CONDUIT    619.41     0  03:52     12.35    0.05    0.90
  YS02001757CaochengTiaoxuchi CONDUIT    409.38     0  03:02      0.97    0.18    0.70
  WSF200WS02003060     CONDUIT    477.27     0  02:58      1.86    0.11    0.31
  1                    CONDUIT    750.23     0  02:57      3.08    0.26    0.35
  2                    CONDUIT    113.34     0  02:51      5.02    0.27    0.36
  3                    CONDUIT    412.66     0  02:51      9.42    0.66    0.60
  4                    CONDUIT      0.00     0  00:00      0.00    0.00    0.00
  CC-Pump-1            PUMP       200.00     0  02:40              1.00
  CC-Pump-2            PUMP       200.00     0  03:20              1.00
  JK-Pump-1            PUMP       300.00     0  03:50              1.00
  JK-Pump-2            PUMP       300.00     0  00:00              1.00
  XR-Pump-1            PUMP        95.00     0  00:00              1.00
  XR-Pump-2            PUMP        95.00     0  01:10              1.00
  XR-Pump-3            PUMP        95.00     0  00:00              1.00
  XR-Pump-4            PUMP        95.00     0  03:20              1.00
  
  
  ***************************
  Flow Classification Summary
  ***************************
  
  -------------------------------------------------------------------------------------
                      Adjusted    ---------- Fraction of Time in Flow Class ---------- 
                       /Actual         Up    Down  Sub   Sup   Up    Down  Norm  Inlet 
  Conduit               Length    Dry  Dry   Dry   Crit  Crit  Crit  Crit  Ltd   Ctrl  
  -------------------------------------------------------------------------------------
  WS02003066WSF200        1.00   0.07  0.00  0.00  0.00  0.93  0.00  0.00  0.75  0.00
  WS02006287WS02006284    1.00   0.05  0.02  0.00  0.68  0.26  0.00  0.00  0.78  0.00
  WS02006284WS02006280    1.00   0.05  0.00  0.00  0.00  0.00  0.00  0.95  0.00  0.00
  WS02006280WS02006229    1.00   0.05  0.00  0.00  0.00  0.00  0.00  0.95  0.00  0.00
  WS02006229WS02006228    1.00   0.00  0.00  0.00  0.98  0.00  0.00  0.02  0.00  0.00
  WS02006256WS02006235    1.00   0.00  0.00  0.00  1.00  0.00  0.00  0.00  0.00  0.00
  WS02006253WS02006251    1.00   0.04  0.01  0.00  0.95  0.00  0.00  0.00  0.00  0.00
  WS02006252WS02006251    1.00   0.11  0.00  0.00  0.00  0.00  0.89  0.00  0.00  0.00
  WS02006251WS02006249    1.00   0.00  0.00  0.00  1.00  0.00  0.00  0.00  0.33  0.00
  WS02006249WS02006248    1.00   0.00  0.02  0.00  0.83  0.00  0.14  0.00  0.00  0.00
  WS02006248WS02006247    1.00   0.03  0.00  0.00  0.97  0.00  0.00  0.00  0.23  0.00
  WS02006247WS02006245    1.00   0.02  0.00  0.00  0.97  0.00  0.00  0.01  0.00  0.00
  WS02006245WS02006243    1.00   0.02  0.00  0.00  0.92  0.00  0.00  0.06  0.03  0.00
  WS02006243WS02006242    1.00   0.01  0.00  0.00  0.99  0.00  0.00  0.00  0.28  0.00
  WS02006242WS02006240    1.00   0.00  0.00  0.00  1.00  0.00  0.00  0.00  0.00  0.00
  WS02006240WS02006239    1.00   0.00  0.00  0.00  0.95  0.00  0.00  0.05  0.01  0.00
  WS02006239WS02006238    1.00   0.00  0.00  0.00  1.00  0.00  0.00  0.00  0.00  0.00
  WS02006238WS02006235    1.00   0.00  0.00  0.00  1.00  0.00  0.00  0.00  0.00  0.00
  WS02006235WS02006234    1.00   0.00  0.00  0.00  0.94  0.00  0.06  0.00  0.00  0.00
  WS02006234WS02006232    1.00   0.00  0.00  0.00  1.00  0.00  0.00  0.00  0.07  0.00
  WS02006232WS02006231    1.00   0.00  0.00  0.00  0.99  0.00  0.01  0.00  0.00  0.00
  WS02006231WS02006230    1.00   0.00  0.00  0.00  0.36  0.00  0.64  0.00  0.00  0.00
  WS02006230WS02006229    1.00   0.00  0.00  0.00  0.98  0.00  0.00  0.02  0.01  0.00
  WS02006228WS02006109    1.00   0.00  0.00  0.00  1.00  0.00  0.00  0.00  0.01  0.00
  WS02006116WS02004401    1.00   0.03  0.00  0.00  0.97  0.00  0.00  0.00  0.00  0.00
  WS02006115WS02006116    1.00   0.03  0.00  0.00  0.96  0.00  0.00  0.01  0.00  0.00
  WS02006113WS02006111    1.00   0.02  0.00  0.00  0.00  0.97  0.00  0.00  0.16  0.00
  WS02006112WS02006115    1.00   0.03  0.00  0.00  0.97  0.00  0.00  0.00  0.00  0.00
  WS02006111WS02006112    1.00   0.03  0.00  0.00  0.97  0.00  0.00  0.00  0.98  0.00
  WS02006110WS02006113    1.00   0.01  0.01  0.00  0.98  0.00  0.00  0.00  0.00  0.00
  WS02006109WS02006110    1.00   0.00  0.01  0.00  0.98  0.00  0.01  0.00  0.00  0.00
  WS02004411WS02004412    1.00   0.05  0.00  0.00  0.95  0.00  0.00  0.00  0.00  0.00
  WS02004401WS02004402    1.00   0.03  0.00  0.00  0.97  0.00  0.00  0.00  0.00  0.00
  WS02004413WS02003067    1.00   0.05  0.02  0.00  0.00  0.00  0.93  0.00  0.00  0.00
  WS02004412WS02004413    1.00   0.05  0.00  0.00  0.95  0.00  0.00  0.00  0.03  0.00
  WS02004410WS02004411    1.00   0.05  0.00  0.00  0.95  0.00  0.00  0.00  0.04  0.00
  WS02004409WS02004410    1.00   0.05  0.00  0.00  0.95  0.00  0.00  0.00  0.04  0.00
  WS02004407WS02004409    1.00   0.05  0.00  0.00  0.95  0.00  0.00  0.00  0.89  0.00
  WS02004406WS02004407    1.00   0.00  0.04  0.00  0.95  0.00  0.00  0.00  0.00  0.00
  WS02004405WS02004406    1.00   0.00  0.00  0.00  1.00  0.00  0.00  0.00  0.00  0.00
  WS02004404WS02004405    1.00   0.00  0.00  0.00  1.00  0.00  0.00  0.00  0.00  0.00
  WS02004403WS02004404    1.00   0.00  0.03  0.00  0.97  0.00  0.00  0.00  0.01  0.00
  WS02004402WS02004403    1.00   0.03  0.00  0.00  0.97  0.00  0.00  0.00  0.00  0.00
  WS02004139WS02001211    1.00   0.00  0.00  0.00  0.99  0.00  0.01  0.00  0.00  0.00
  WS02004138WS02004139    1.00   0.00  0.00  0.00  0.99  0.01  0.00  0.00  1.00  0.00
  WS02003067WS02003066    1.00   0.07  0.00  0.00  0.93  0.00  0.00  0.00  0.00  0.00
  WS02001213WS02003059    1.00   0.00  0.00  0.00  0.99  0.00  0.00  0.00  0.00  0.00
  WS02001212WS02001213    1.00   0.01  0.00  0.00  0.65  0.00  0.35  0.00  0.00  0.00
  WS02001211WS02001212    1.00   0.00  0.01  0.00  0.99  0.00  0.00  0.00  0.00  0.00
  WS02003072WS02003073    1.00   0.00  0.00  0.00  0.00  0.00  0.00  1.00  0.00  0.00
  WS02003069WS02003072    1.00   0.00  0.00  0.00  0.99  0.01  0.00  0.00  0.46  0.00
  WS02003060WS02003069    1.00   0.00  0.00  0.00  0.98  0.02  0.00  0.00  0.29  0.00
  WS02003059WS02003060    1.00   0.00  0.00  0.00  0.99  0.01  0.00  0.00  0.01  0.00
  HS02004901HS02004770    1.00   0.05  0.00  0.00  0.95  0.00  0.00  0.00  0.03  0.00
  HS02004876HS02004881    1.00   0.03  0.00  0.00  0.97  0.00  0.00  0.00  0.00  0.00
  HS02004870HS02004876    1.00   0.01  0.00  0.00  0.99  0.00  0.00  0.00  0.95  0.00
  HS02004842HS02004848    1.00   0.00  0.05  0.00  0.95  0.00  0.00  0.00  0.70  0.00
  HS02004837HS02004842    1.00   0.00  0.00  0.00  0.99  0.01  0.00  0.00  0.11  0.00
  HS02004830HS02004837    1.00   0.00  0.00  0.00  1.00  0.00  0.00  0.00  0.99  0.00
  HS02004824HS02004830    1.00   0.00  0.00  0.00  1.00  0.00  0.00  0.00  0.00  0.00
  HS02004817HS02004824    1.00   0.00  0.00  0.00  1.00  0.00  0.00  0.00  1.00  0.00
  HS02004770HS02004777    1.00   0.00  0.05  0.00  0.95  0.00  0.00  0.00  0.08  0.00
  HS02004799HS02004480    1.00   0.00  0.03  0.00  0.93  0.00  0.04  0.00  0.00  0.00
  HS02004792HS02004799    1.00   0.00  0.00  0.00  0.98  0.02  0.00  0.00  0.98  0.00
  HS02004788HS02004792    1.00   0.00  0.00  0.00  0.99  0.01  0.00  0.00  0.98  0.00
  HS02004785HS02004788    1.00   0.00  0.00  0.00  1.00  0.00  0.00  0.00  0.00  0.00
  HS02004777HS02004785    1.00   0.00  0.00  0.00  1.00  0.00  0.00  0.00  0.21  0.00
  HS02004480HS02004478    1.00   0.06  0.00  0.00  0.72  0.00  0.00  0.23  0.00  0.00
  HS02004479HS02004480    1.00   0.03  0.00  0.00  0.97  0.00  0.00  0.00  0.16  0.00
  HS02004862HS02004870    1.00   0.00  0.00  0.00  1.00  0.00  0.00  0.00  0.05  0.00
  HS02004848HS02004852    1.00   0.05  0.00  0.00  0.95  0.00  0.00  0.00  0.70  0.00
  HS02004856HS02004862    1.00   0.00  0.08  0.00  0.92  0.00  0.00  0.00  0.74  0.00
  HS02004852HS02004856    1.00   0.05  0.01  0.00  0.94  0.00  0.00  0.00  0.82  0.00
  HS02004802HS02004478    1.00   0.05  0.01  0.00  0.94  0.00  0.00  0.00  0.00  0.00
  HS02004478WS02006287    1.00   0.06  0.00  0.00  0.89  0.05  0.00  0.00  0.81  0.00
  HS02004817HS02004807    1.00   0.00  0.05  0.00  0.95  0.00  0.00  0.00  0.00  0.00
  HS02004807HS02004802    1.00   0.05  0.00  0.00  0.94  0.00  0.00  0.00  0.01  0.00
  YS02001759YS02001757    1.00   0.00  0.00  0.00  1.00  0.00  0.00  0.00  0.17  0.00
  YS02001762YS02001759    1.00   0.00  0.00  0.00  1.00  0.00  0.00  0.00  0.05  0.00
  YS02001765YS02001762    1.00   0.00  0.00  0.00  1.00  0.00  0.00  0.00  0.23  0.00
  YS02001770YS02001767    1.00   0.00  0.00  0.00  1.00  0.00  0.00  0.00  0.00  0.00
  YS02001774YS02001770    1.00   0.00  0.06  0.00  0.94  0.00  0.00  0.00  0.06  0.00
  YS02001779YS02001774    1.00   0.00  0.00  0.00  1.00  0.00  0.00  0.00  0.27  0.00
  YS02001649YS02001757    1.00   0.00  0.00  0.00  1.00  0.00  0.00  0.00  0.19  0.00
  YS02001767YS02001765    1.00   0.00  0.00  0.00  1.00  0.00  0.00  0.00  0.01  0.00
  YS02006561YS02001783    1.00   0.08  0.00  0.00  0.00  0.92  0.00  0.00  0.73  0.00
  YS02001783YS02001784    1.00   0.00  0.08  0.00  0.92  0.00  0.00  0.00  0.00  0.00
  YS02001784YS02001785    1.00   0.00  0.00  0.00  1.00  0.00  0.00  0.00  0.26  0.00
  YS02001788YS02001790    1.00   0.00  0.00  0.00  0.09  0.91  0.00  0.00  0.83  0.00
  YS02001790YS02001791    1.00   0.00  0.00  0.00  0.02  0.98  0.00  0.00  0.47  0.00
  YS02001791YS02001793    1.00   0.00  0.00  0.00  0.04  0.96  0.00  0.00  0.03  0.00
  YS02001910YS02001907    1.00   0.00  0.00  0.00  0.97  0.00  0.00  0.03  0.13  0.00
  YS02001786YS02001788    1.00   0.00  0.00  0.00  0.09  0.91  0.00  0.00  0.00  0.00
  YS02001915YS02001910    1.00   0.00  0.00  0.00  0.99  0.01  0.00  0.00  0.24  0.00
  YS02001918YS02001915    1.00   0.00  0.01  0.00  0.98  0.02  0.00  0.00  0.81  0.00
  YS02001923YS02001920    1.00   0.00  0.00  0.00  1.00  0.00  0.00  0.00  1.00  0.00
  YS02001926YS02001923    1.00   0.00  0.04  0.00  0.00  0.00  0.96  0.00  0.00  0.00
  YS02001929YS02001926    1.00   0.00  0.05  0.00  0.95  0.00  0.00  0.00  0.86  0.00
  YS02001920YS02001918    1.00   0.00  0.01  0.00  0.99  0.00  0.00  0.00  0.00  0.00
  YS02001629YS02163301    1.00   0.07  0.00  0.00  0.92  0.00  0.00  0.00  0.00  0.00
  YS02001619YS02001622    1.00   0.05  0.00  0.00  0.95  0.00  0.00  0.00  0.00  0.00
  YS02001622YS02001625    1.00   0.05  0.00  0.00  0.95  0.00  0.00  0.00  0.13  0.00
  YS02001625YS02001629    1.00   0.05  0.03  0.00  0.89  0.00  0.02  0.00  0.00  0.00
  YS02163301YS02001633    1.00   0.00  0.07  0.00  0.93  0.00  0.00  0.00  0.00  0.00
  YS02163601YS02164001    1.00   0.00  0.04  0.00  0.96  0.00  0.00  0.00  0.00  0.00
  YS02164001YS02001641    1.00   0.01  0.03  0.00  0.96  0.00  0.00  0.00  0.07  0.00
  YS02001641YS02001644    1.00   0.00  0.01  0.00  0.99  0.00  0.00  0.00  0.00  0.00
  YS02001647YS02001649    1.00   0.00  0.08  0.00  0.92  0.00  0.00  0.00  0.01  0.00
  YS02006553YS02006556    1.00   0.02  0.00  0.00  0.98  0.00  0.00  0.00  0.03  0.00
  YS02006556YS02006558    1.00   0.00  0.00  0.00  1.00  0.00  0.00  0.00  0.00  0.00
  YSB6556YSB1171          1.00   0.03  0.02  0.00  0.95  0.00  0.00  0.00  0.00  0.00
  YS02001907YS02006553    1.00   0.00  0.03  0.00  0.97  0.00  0.00  0.00  0.00  0.00
  YS02006558YS02006561    1.00   0.08  0.00  0.00  0.00  0.92  0.00  0.00  0.72  0.00
  YS02001633YS02163601    1.00   0.00  0.01  0.00  0.99  0.00  0.00  0.00  0.20  0.00
  YS02001644YS02001647    1.00   0.00  0.08  0.00  0.92  0.00  0.00  0.00  0.00  0.00
  YS02001745YS02001748    1.00   0.00  0.00  0.00  0.64  0.16  0.00  0.20  0.63  0.00
  YS02001748YS02001751    1.00   0.00  0.00  0.00  0.97  0.03  0.00  0.00  0.26  0.00
  YS02001751YS02001754    1.00   0.00  0.00  0.00  0.91  0.00  0.00  0.09  0.02  0.00
  YS02001754YS02001757    1.00   0.00  0.00  0.00  0.99  0.01  0.00  0.00  0.27  0.00
  YS02001882YS02001884    1.00   0.07  0.00  0.00  0.93  0.00  0.00  0.00  0.00  0.00
  YS02001884YS02001887    1.00   0.04  0.01  0.00  0.95  0.00  0.00  0.00  0.00  0.00
  YS02001890YS02001895    1.00   0.00  0.07  0.00  0.92  0.00  0.00  0.00  0.00  0.00
  YS02001895YS02001898    1.00   0.08  0.00  0.00  0.92  0.00  0.01  0.00  0.00  0.00
  YS02001898YS02001901    1.00   0.07  0.01  0.00  0.92  0.00  0.00  0.00  0.02  0.00
  YS02001901YS02001904    1.00   0.07  0.00  0.00  0.93  0.00  0.00  0.00  0.00  0.00
  YS02001904YS02001907    1.00   0.00  0.07  0.00  0.93  0.00  0.00  0.00  0.00  0.00
  YS02001887YS02001890    1.00   0.00  0.00  0.00  0.97  0.00  0.03  0.00  0.00  0.00
  YS02001652YS02001649    1.00   0.00  0.00  0.00  1.00  0.00  0.00  0.00  0.26  0.00
  YS02001655YS02001652    1.00   0.00  0.00  0.00  0.91  0.00  0.00  0.09  0.02  0.00
  YS02001658YS02001655    1.00   0.00  0.07  0.00  0.90  0.04  0.00  0.00  0.15  0.00
  YS02001661YS02001658    1.00   0.07  0.00  0.00  0.69  0.25  0.00  0.00  0.72  0.00
  YS02001664YS02001661    1.00   0.05  0.00  0.00  0.82  0.13  0.00  0.00  0.86  0.00
  YSB1154YSB6556          1.00   0.05  0.00  0.00  0.95  0.00  0.00  0.00  0.02  0.00
  YSB1174YSB1171          1.00   0.04  0.01  0.00  0.96  0.00  0.00  0.00  0.00  0.00
  YSB1171HS02004479       1.00   0.03  0.00  0.00  0.96  0.00  0.00  0.00  0.13  0.00
  HS02004881HS02006253    1.00   0.04  0.00  0.00  0.61  0.02  0.00  0.33  0.42  0.00
  YS02001793JiankangQianchi    1.00   0.00  0.00  0.00  0.30  0.70  0.00  0.00  0.24  0.00
  YS02001757CaochengTiaoxuchi    1.00   0.00  0.11  0.00  0.89  0.00  0.00  0.00  0.00  0.00
  WSF200WS02003060        1.00   0.00  0.07  0.00  0.48  0.45  0.00  0.00  0.32  0.00
  1                       1.00   0.00  0.00  0.00  0.00  1.00  0.00  0.00  0.42  0.00
  2                       1.00   0.85  0.00  0.00  0.00  0.15  0.00  0.00  0.05  0.00
  3                       1.00   0.44  0.00  0.00  0.00  0.56  0.00  0.00  0.36  0.00
  4                       1.00   1.00  0.00  0.00  0.00  0.00  0.00  0.00  0.00  0.00
  
  
  *************************
  Conduit Surcharge Summary
  *************************
  
  ----------------------------------------------------------------------------
                                                           Hours        Hours 
                         --------- Hours Full --------   Above Full   Capacity
  Conduit                Both Ends  Upstream  Dnstream   Normal Flow   Limited
  ----------------------------------------------------------------------------
  WS02006229WS02006228        0.62      0.78      0.62      2.33         0.62
  WS02006256WS02006235        5.59      5.59      7.54      2.61         0.01
  WS02006252WS02006251        0.44      0.44      0.93      0.80         0.01
  WS02006251WS02006249        0.01      0.01      0.01      0.44         0.01
  WS02006249WS02006248        0.01      0.01      0.01      2.58         0.01
  WS02006247WS02006245        0.01      0.01      0.01      3.44         0.01
  WS02006245WS02006243        0.01      0.01      0.01      0.03         0.01
  WS02006243WS02006242        0.01      0.01      0.28      0.01         0.01
  WS02006242WS02006240        0.06      0.06      0.41      0.91         0.01
  WS02006240WS02006239        0.10      0.10      0.13      0.02         0.01
  WS02006239WS02006238        0.35      0.35      0.38      0.10         0.10
  WS02006238WS02006235        0.31      0.31      0.56      0.01         0.01
  WS02006235WS02006234        0.05      0.05      0.21      5.48         0.01
  WS02006234WS02006232        0.15      0.15      0.61      0.01         0.01
  WS02006232WS02006231        0.01      0.01      0.61      0.01         0.01
  WS02006231WS02006230        0.01      0.01      0.01      5.69         0.01
  WS02006230WS02006229        1.25      1.86      1.25      5.78         1.25
  WS02006228WS02006109        0.72      1.03      0.72      3.69         0.72
  WS02006111WS02006112        0.01      0.01      2.50      0.01         0.01
  WS02006110WS02006113        0.01      0.01      0.87      0.01         0.01
  WS02006109WS02006110        0.01      0.01      1.03      0.01         0.01
  WS02004404WS02004405        0.01      0.01      0.01      5.56         0.01
  WS02003072WS02003073        0.01      0.01      0.01      2.63         0.01
  YS02001759YS02001757        1.22      1.22      5.09      0.01         0.01
  YS02001762YS02001759        0.18      0.18      1.22      0.01         0.01
  YS02001765YS02001762        0.01      0.01      0.18      0.01         0.01
  YS02001649YS02001757        0.51      0.51      5.09      0.01         0.01
  YS02001791YS02001793        0.01      0.01      0.01      0.01         0.01
  YS02163601YS02164001        0.01      0.01      0.28      0.01         0.01
  YS02001647YS02001649        0.01      0.01      0.51      0.01         0.01
  YS02001633YS02163601        0.01      0.01      0.28      0.01         0.01
  YS02001754YS02001757        0.01      0.01      5.09      0.01         0.01
  YS02001652YS02001649        0.01      0.01      0.51      0.01         0.01
  YS02001793JiankangQianchi        0.01      0.01      1.18      0.01         0.01
  YS02001757CaochengTiaoxuchi        0.01      0.01      5.09      0.01         0.01
  
  
  ***************
  Pumping Summary
  ***************
  
  ---------------------------------------------------------------------------------------------------------
                                                  Min       Avg       Max     Total     Power    % Time Off
                        Percent   Number of      Flow      Flow      Flow    Volume     Usage    Pump Curve
  Pump                 Utilized   Start-Ups       LPS       LPS       LPS  10^6 ltr     Kw-hr    Low   High
  ---------------------------------------------------------------------------------------------------------
  CC-Pump-1               31.92           4      0.00    127.46    200.00     1.080      4.22    0.0   33.2
  CC-Pump-2               59.24           4      0.00    131.82    200.00     2.094      7.68    0.0   38.3
  JK-Pump-1               57.43           6      0.00    121.79    300.00     1.243     20.49    0.0    0.0
  JK-Pump-2               78.71           7      0.00    128.18    300.00     1.964     34.49    0.0    0.0
  XR-Pump-1               57.44           9      0.00     65.06     95.00     1.055      6.02    0.0    0.0
  XR-Pump-2               68.06           9      0.00     61.87     95.00     1.168      6.01    0.0    0.0
  XR-Pump-3               80.85           8      0.00     66.29     95.00     1.454      7.88    0.0    0.0
  XR-Pump-4               44.66           7      0.00     65.79     95.00     0.769      4.06    0.0    0.0
  

  Analysis begun on:  Thu Jan  6 00:39:41 2022
  Analysis ended on:  Thu Jan  6 00:39:44 2022
  Total elapsed time: 00:00:03