
  EPA STORM WATER MANAGEMENT MODEL - VERSION 5.1 (Build 5.3.0.dev0)
  --------------------------------------------------------------

  WARNING 04: minimum elevation drop used for Conduit WS02004404WS02004405
  WARNING 03: negative offset ignored for Link YS02001904YS02001907
  
  *********************************************************
  NOTE: The summary statistics displayed in this report are
  based on results found at every computational time step,  
  not just on results from each reporting time step.
  *********************************************************
  
  ****************
  Analysis Options
  ****************
  Flow Units ............... LPS
  Process Models:
    Rainfall/Runoff ........ YES
    RDII ................... NO
    Snowmelt ............... NO
    Groundwater ............ NO
    Flow Routing ........... YES
    Ponding Allowed ........ NO
    Water Quality .......... NO
  Infiltration Method ...... HORTON
  Flow Routing Method ...... DYNWAVE
  Surcharge Method ......... EXTRAN
  Starting Date ............ 08/28/2015 08:00:00
  Ending Date .............. 08/28/2015 15:50:00
  Antecedent Dry Days ...... 8.0
  Report Time Step ......... 00:01:00
  Wet Time Step ............ 00:01:00
  Dry Time Step ............ 00:01:00
  Routing Time Step ........ 5.00 sec
  Variable Time Step ....... YES
  Maximum Trials ........... 8
  Number of Threads ........ 4
  Head Tolerance ........... 0.001500 m
  
  
  **************************        Volume         Depth
  Runoff Quantity Continuity     hectare-m            mm
  **************************     ---------       -------
  Total Precipitation ......         1.721         3.769
  Evaporation Loss .........         0.000         0.000
  Infiltration Loss ........         0.422         0.924
  Surface Runoff ...........         0.523         1.146
  Final Storage ............         0.776         1.699
  Continuity Error (%) .....        -0.016
  
  
  **************************        Volume        Volume
  Flow Routing Continuity        hectare-m      10^6 ltr
  **************************     ---------     ---------
  Dry Weather Inflow .......         0.616         6.165
  Wet Weather Inflow .......         0.523         5.230
  Groundwater Inflow .......         0.000         0.000
  RDII Inflow ..............         0.000         0.000
  External Inflow ..........         0.102         1.024
  External Outflow .........         1.056        10.559
  Flooding Loss ............         0.146         1.458
  Evaporation Loss .........         0.000         0.000
  Exfiltration Loss ........         0.000         0.000
  Initial Stored Volume ....         0.076         0.761
  Final Stored Volume ......         0.207         2.069
  Continuity Error (%) .....        -6.889
  
  
  *************************
  Highest Continuity Errors
  *************************
  Node HS02004842 (39.89%)
  Node JK-storage (-35.49%)
  Node YS02001884 (33.78%)
  Node YS02001774 (18.76%)
  Node YSB1171 (12.09%)
  
  
  ***************************
  Time-Step Critical Elements
  ***************************
  Link WS02006252WS02006251 (79.52%)
  Link 3 (8.23%)
  Link WS02006280WS02006229 (4.06%)
  Link WS02006238WS02006235 (3.34%)
  
  
  ********************************
  Highest Flow Instability Indexes
  ********************************
  Link WS02006113WS02006111 (49)
  Link WS02006111WS02006112 (15)
  Link YS02001754YS02001757 (3)
  Link YS02001751YS02001754 (3)
  Link YS02001767YS02001765 (3)
  
  
  *************************
  Routing Time Step Summary
  *************************
  Minimum Time Step           :     0.50 sec
  Average Time Step           :     1.11 sec
  Maximum Time Step           :     5.00 sec
  Percent in Steady State     :    -0.00
  Average Iterations per Step :     2.01
  Percent Not Converging      :     0.03
  
  
  ***************************
  Subcatchment Runoff Summary
  ***************************
  
  ------------------------------------------------------------------------------------------------------------------------------
                            Total      Total      Total      Total     Imperv       Perv      Total       Total     Peak  Runoff
                           Precip      Runon       Evap      Infil     Runoff     Runoff     Runoff      Runoff   Runoff   Coeff
  Subcatchment                 mm         mm         mm         mm         mm         mm         mm    10^6 ltr      LPS
  ------------------------------------------------------------------------------------------------------------------------------
  sub0                       3.77       0.00       0.00       0.26       2.24       0.00       2.24        0.00     0.57   0.594
  sub1                       3.77       0.00       0.00       0.41       2.10       0.00       2.10        0.01     3.05   0.557
  sub2                       3.77       0.00       0.00       1.39       1.47       0.00       1.47        0.01     2.70   0.390
  sub3                       3.77       0.00       0.00       1.39       1.44       0.00       1.44        0.03     5.60   0.382
  sub4                       3.77       0.00       0.00       0.41       1.98       0.00       1.98        0.04     6.31   0.525
  sub5                       3.77       0.00       0.00       0.26       2.20       0.00       2.20        0.02     5.42   0.582
  sub7                       3.77       0.00       0.00       0.34       2.17       0.00       2.17        0.01     1.90   0.577
  sub8                       3.77       0.00       0.00       0.34       2.17       0.00       2.17        0.01     3.36   0.575
  sub9                       3.77       0.00       0.00       0.34       2.16       0.00       2.16        0.01     2.49   0.574
  sub10                      3.77       0.00       0.00       0.30       2.18       0.00       2.18        0.02     5.40   0.578
  sub11                      3.77       0.00       0.00       0.30       2.19       0.00       2.19        0.03     6.31   0.582
  sub12                      3.77       0.00       0.00       0.49       2.09       0.00       2.09        0.02     5.32   0.555
  sub14                      3.77       0.00       0.00       0.34       2.16       0.00       2.16        0.02     4.87   0.574
  sub15                      3.77       0.00       0.00       1.13       1.66       0.00       1.66        0.03     6.61   0.441
  sub16                      3.77       0.00       0.00       1.24       1.61       0.00       1.61        0.02     4.68   0.426
  sub17                      3.77       0.00       0.00       1.21       1.63       0.00       1.63        0.01     3.78   0.432
  sub22                      3.77       0.00       0.00       1.62       1.36       0.00       1.36        0.09    21.57   0.361
  sub23                      3.77       0.00       0.00       1.39       1.50       0.00       1.50        0.07    18.36   0.399
  sub60                      3.77       0.00       0.00       0.45       1.24       0.00       1.24        0.37    31.38   0.328
  sub61                      3.77       0.00       0.00       0.64       1.38       0.00       1.38        0.43    40.65   0.366
  sub62                      3.77       0.00       0.00       0.30       1.46       0.00       1.46        0.45    41.24   0.388
  sub63                      3.77       0.00       0.00       1.09       1.25       0.00       1.25        0.38    38.18   0.331
  sub64                      3.77       0.00       0.00       0.57       1.18       0.00       1.18        0.36    29.72   0.313
  sub65                      3.77       0.00       0.00       0.49       1.19       0.00       1.19        0.37    30.07   0.315
  sub66                      3.77       0.00       0.00       1.09       1.04       0.00       1.04        0.32    27.58   0.276
  sub67                      3.77       0.00       0.00       0.30       1.67       0.00       1.67        0.52    53.76   0.443
  sub68                      3.77       0.00       0.00       0.53       1.48       0.00       1.48        0.46    45.15   0.394
  sub69                      3.77       0.00       0.00       0.57       1.67       0.00       1.67        0.39    44.84   0.442
  sub70                      3.77       1.70       0.00       1.86       1.86       0.00       1.86        0.43    31.90   0.340
  sub71                      3.77       0.00       0.00       0.30       1.38       0.00       1.38        0.33    28.46   0.365
  sub72                      3.77       0.00       0.00       0.26       0.89       0.00       0.89        0.18    12.55   0.236
  sub73                      3.77       1.81       0.00       1.90       1.77       0.00       1.77        0.42    27.33   0.318
  sub74                      3.77       0.00       0.00       2.83       0.51       0.00       0.51        0.20    24.94   0.135
  
  
  ******************
  Node Depth Summary
  ******************
  
  ---------------------------------------------------------------------------------
                                 Average  Maximum  Maximum  Time of Max    Reported
                                   Depth    Depth      HGL   Occurrence   Max Depth
  Node                 Type       Meters   Meters   Meters  days hr:min      Meters
  ---------------------------------------------------------------------------------
  WS02001211           JUNCTION     0.58     0.70     5.54     0  04:50        0.70
  WS02001212           JUNCTION     0.32     0.41     5.48     0  04:50        0.41
  WS02001213           JUNCTION     0.54     0.65     5.41     0  04:51        0.65
  WS02003069           JUNCTION     0.36     0.46     5.05     0  04:52        0.46
  WS02003072           JUNCTION     0.43     0.53     4.90     0  04:53        0.53
  WS02003073           JUNCTION     0.25     0.32     4.38     0  04:53        0.32
  WS02003060           JUNCTION     0.32     0.41     5.34     0  04:51        0.41
  WS02003066           JUNCTION     0.20     0.27     5.82     0  03:24        0.27
  WS02003059           JUNCTION     0.60     0.71     5.39     0  04:51        0.71
  WS02003067           JUNCTION     0.51     0.65     5.97     0  03:24        0.65
  WS02004401           JUNCTION     0.58     0.76     6.76     0  03:20        0.76
  WS02004402           JUNCTION     0.62     0.79     6.75     0  03:20        0.79
  WS02004403           JUNCTION     0.64     0.81     6.74     0  03:20        0.81
  WS02004404           JUNCTION     0.72     0.89     6.74     0  03:20        0.89
  WS02004406           JUNCTION     0.73     0.89     6.72     0  03:21        0.89
  WS02004409           JUNCTION     0.40     0.58     6.35     0  03:23        0.58
  WS02004410           JUNCTION     0.42     0.60     6.32     0  03:23        0.60
  WS02004411           JUNCTION     0.44     0.61     6.29     0  03:24        0.61
  WS02004412           JUNCTION     0.47     0.63     6.27     0  03:24        0.63
  WS02004413           JUNCTION     0.63     0.79     6.26     0  03:24        0.79
  WS02004405           JUNCTION     0.71     0.88     6.73     0  03:20        0.88
  WS02006109           JUNCTION     0.66     0.87     7.48     0  02:54        0.87
  WS02006110           JUNCTION     0.66     0.85     7.43     0  02:55        0.85
  WS02006111           JUNCTION     0.18     0.26     6.97     0  02:55        0.26
  WS02006112           JUNCTION     0.74     0.94     6.83     0  03:19        0.94
  WS02006113           JUNCTION     0.28     0.41     7.30     0  02:56        0.41
  WS02006115           JUNCTION     0.47     0.65     6.79     0  03:20        0.65
  WS02006116           JUNCTION     0.55     0.74     6.78     0  03:20        0.74
  WS02006230           JUNCTION     0.59     0.88     7.63     0  02:54        0.88
  WS02006231           JUNCTION     0.39     0.60     7.72     0  03:15        0.60
  WS02006232           JUNCTION     0.52     0.74     7.78     0  03:14        0.74
  WS02006234           JUNCTION     0.43     0.69     7.85     0  03:14        0.69
  WS02006235           JUNCTION     0.46     0.73     7.89     0  03:14        0.72
  WS02006238           JUNCTION     0.48     0.76     7.90     0  03:14        0.75
  WS02006240           JUNCTION     0.38     0.68     7.97     0  03:14        0.68
  WS02006242           JUNCTION     0.43     0.74     8.01     0  03:15        0.74
  WS02006243           JUNCTION     0.32     0.62     8.04     0  03:14        0.62
  WS02006245           JUNCTION     0.31     0.59     8.08     0  03:14        0.59
  WS02006247           JUNCTION     0.33     0.60     8.10     0  03:14        0.60
  WS02006248           JUNCTION     0.29     0.54     8.13     0  03:14        0.54
  WS02006249           JUNCTION     0.33     0.57     8.16     0  03:12        0.57
  WS02006239           JUNCTION     0.44     0.73     7.94     0  03:14        0.73
  WS02006251           JUNCTION     0.31     0.59     8.26     0  03:10        0.59
  WS02006252           JUNCTION     0.29     0.58     8.83     0  03:10        0.58
  WS02006253           JUNCTION     0.34     0.62     8.26     0  03:10        0.61
  WS02006256           JUNCTION     0.87     1.16     8.10     0  03:14        1.16
  WS02004138           JUNCTION     0.12     0.17     7.42     0  01:10        0.17
  WS02004407           JUNCTION     0.18     0.26     6.57     0  03:21        0.26
  WS02006228           JUNCTION     0.64     0.88     7.53     0  02:54        0.88
  WS02006229           JUNCTION     0.61     0.87     7.56     0  02:55        0.87
  WS02006280           JUNCTION     0.05     0.10     8.37     0  02:31        0.10
  WS02006284           JUNCTION     0.33     0.41     8.81     0  02:31        0.41
  WS02006287           JUNCTION     0.07     0.14     9.10     0  02:30        0.14
  WSF200               JUNCTION     0.18     0.26     5.49     0  03:24        0.26
  HS02004901           JUNCTION     0.10     0.17     9.99     0  02:29        0.17
  HS02004881           JUNCTION     0.00     0.01     9.04     0  02:30        0.01
  HS02004876           JUNCTION     0.03     0.08     9.11     0  02:31        0.08
  HS02004870           JUNCTION     0.01     0.02     9.31     0  02:30        0.02
  HS02004862           JUNCTION     0.01     0.03     9.41     0  02:32        0.03
  HS02004856           JUNCTION     0.07     0.09     9.51     0  02:30        0.09
  HS02004852           JUNCTION     0.00     0.01     9.53     0  02:32        0.01
  HS02004848           JUNCTION     0.00     0.01     9.61     0  02:29        0.01
  HS02004842           JUNCTION     0.32     0.34     9.61     0  02:29        0.34
  HS02004837           JUNCTION     0.02     0.03     9.61     0  02:29        0.03
  HS02004830           JUNCTION     0.03     0.05     9.52     0  02:29        0.05
  HS02004824           JUNCTION     0.02     0.03     9.43     0  02:34        0.03
  HS02004817           JUNCTION     0.41     0.47     9.32     0  02:31        0.47
  HS02004807           JUNCTION     0.10     0.15     9.32     0  02:31        0.15
  HS02004802           JUNCTION     0.14     0.19     9.32     0  02:31        0.19
  HS02004799           JUNCTION     0.09     0.17     9.38     0  02:29        0.17
  HS02004792           JUNCTION     0.02     0.06     9.58     0  02:27        0.06
  HS02004788           JUNCTION     0.01     0.04     9.94     0  02:29        0.04
  HS02004785           JUNCTION     0.03     0.08     9.99     0  02:29        0.08
  HS02004777           JUNCTION     0.12     0.19     9.99     0  02:29        0.19
  HS02004770           JUNCTION     0.09     0.16     9.99     0  02:28        0.16
  HS02004480           JUNCTION     0.05     0.13     9.37     0  02:29        0.13
  HS02004479           JUNCTION     0.09     0.17     9.37     0  02:29        0.17
  HS02004478           JUNCTION     0.04     0.08     9.31     0  02:30        0.08
  YS02001745           JUNCTION     0.05     0.08     7.59     0  03:01        0.08
  YS02001748           JUNCTION     0.06     0.09     7.16     0  03:01        0.09
  YS02001751           JUNCTION     0.18     0.27     7.15     0  03:11        0.27
  YS02001754           JUNCTION     0.42     0.55     7.16     0  03:11        0.55
  YS02001762           JUNCTION     0.62     0.75     7.15     0  03:08        0.75
  YS02001765           JUNCTION     0.57     0.70     7.15     0  03:08        0.70
  YS02001767           JUNCTION     0.53     0.67     7.15     0  03:08        0.66
  YS02001770           JUNCTION     0.53     0.66     7.15     0  03:07        0.66
  YS02001774           JUNCTION     0.60     0.73     7.15     0  03:07        0.73
  YS02001779           JUNCTION     0.35     0.47     7.15     0  03:09        0.47
  YS02001882           JUNCTION     0.21     0.30     7.02     0  03:01        0.30
  YS02001884           JUNCTION     0.30     0.40     7.02     0  03:02        0.40
  YS02001759           JUNCTION     0.65     0.79     7.15     0  03:10        0.79
  YS02001887           JUNCTION     0.38     0.48     7.02     0  03:02        0.48
  YS02001890           JUNCTION     0.41     0.51     7.01     0  03:03        0.51
  YS02001898           JUNCTION     0.18     0.27     7.00     0  03:02        0.27
  YS02001901           JUNCTION     0.30     0.39     7.00     0  03:03        0.39
  YS02001904           JUNCTION     0.28     0.37     7.00     0  03:03        0.37
  YS02001907           JUNCTION     0.60     0.71     7.00     0  03:03        0.71
  YS02001910           JUNCTION     0.39     0.49     7.00     0  03:03        0.49
  YS02001915           JUNCTION     0.20     0.28     7.00     0  03:03        0.28
  YS02001918           JUNCTION     0.06     0.07     7.13     0  03:05        0.07
  YS02001619           JUNCTION     0.14     0.23     7.16     0  03:12        0.23
  YS02001629           JUNCTION     0.48     0.61     7.15     0  03:12        0.60
  YS02001641           JUNCTION     0.58     0.72     7.15     0  03:11        0.72
  YS02001644           JUNCTION     0.59     0.72     7.15     0  03:11        0.72
  YS02001652           JUNCTION     0.44     0.56     7.15     0  03:15        0.55
  YS02001655           JUNCTION     0.21     0.30     7.15     0  03:07        0.30
  YS02001920           JUNCTION     0.14     0.16     7.16     0  03:04        0.16
  YS02001923           JUNCTION     0.04     0.05     7.31     0  03:03        0.05
  YS02001926           JUNCTION     0.10     0.12     7.57     0  03:03        0.12
  YS02001929           JUNCTION     0.04     0.06     7.75     0  03:01        0.06
  YS02001658           JUNCTION     0.06     0.09     7.23     0  03:01        0.09
  YS02001661           JUNCTION     0.12     0.16     7.56     0  03:01        0.16
  YS02001664           JUNCTION     0.05     0.08     8.00     0  03:01        0.08
  YS02001622           JUNCTION     0.16     0.25     7.15     0  03:12        0.25
  YS02001633           JUNCTION     0.57     0.70     7.15     0  03:11        0.70
  YS02001649           JUNCTION     0.62     0.76     7.15     0  03:10        0.76
  YS02001757           JUNCTION     0.75     0.89     7.15     0  03:11        0.89
  YS02001895           JUNCTION     0.18     0.26     7.01     0  03:03        0.26
  YS02001625           JUNCTION     0.44     0.55     7.15     0  03:11        0.55
  YS02163301           JUNCTION     0.51     0.64     7.15     0  03:11        0.64
  YS02163601           JUNCTION     0.62     0.75     7.15     0  03:11        0.75
  YS02164001           JUNCTION     0.56     0.69     7.15     0  03:11        0.69
  YS02001647           JUNCTION     0.42     0.54     7.15     0  03:10        0.54
  YSB1154              JUNCTION     0.22     0.31     9.37     0  02:29        0.31
  YSB6556              JUNCTION     0.12     0.20     9.37     0  02:29        0.20
  YSB1174              JUNCTION     0.18     0.26     9.37     0  02:29        0.26
  YSB1171              JUNCTION     0.37     0.47     9.37     0  02:29        0.47
  YS02006553           JUNCTION     0.61     0.71     7.00     0  03:03        0.71
  YS02006561           JUNCTION     0.10     0.15     6.81     0  03:03        0.15
  YS02006556           JUNCTION     0.58     0.69     7.00     0  03:03        0.69
  YS02006558           JUNCTION     0.63     0.73     7.00     0  03:03        0.73
  YS02001783           JUNCTION     0.16     0.25     6.39     0  03:03        0.25
  YS02001784           JUNCTION     0.20     0.29     6.35     0  03:03        0.29
  YS02001786           JUNCTION     0.17     0.24     6.27     0  03:04        0.24
  YS02001788           JUNCTION     0.12     0.18     6.15     0  03:04        0.18
  YS02001790           JUNCTION     0.15     0.21     5.86     0  03:05        0.21
  YS02001791           JUNCTION     0.10     0.14     5.61     0  03:05        0.14
  YS02001793           JUNCTION     0.06     0.09     4.93     0  03:14        0.09
  WS02004139           JUNCTION     0.52     0.64     5.55     0  04:50        0.64
  WSC                  OUTFALL      0.25     0.32     0.99     0  04:53        0.32
  3                    OUTFALL      0.03     0.16     6.16     0  03:14        0.15
  4                    OUTFALL      0.00     0.07     7.07     0  03:12        0.07
  5                    OUTFALL      0.00     0.00     5.00     0  00:00        0.00
  JK-storage           STORAGE      0.27     3.00     3.80     0  00:10        3.00
  CC-storage           STORAGE      0.01     0.04     7.04     0  05:44        0.04
  XR-storage           STORAGE      7.50     7.72     5.72     0  02:10        7.72
  
  
  *******************
  Node Inflow Summary
  *******************
  
  -------------------------------------------------------------------------------------------------
                                  Maximum  Maximum                  Lateral       Total        Flow
                                  Lateral    Total  Time of Max      Inflow      Inflow     Balance
                                   Inflow   Inflow   Occurrence      Volume      Volume       Error
  Node                 Type           LPS      LPS  days hr:min    10^6 ltr    10^6 ltr     Percent
  -------------------------------------------------------------------------------------------------
  WS02001211           JUNCTION      7.35   292.62     0  01:20       0.207        4.66       0.484
  WS02001212           JUNCTION      0.00   292.59     0  01:20           0        4.64       0.323
  WS02001213           JUNCTION      0.00   292.57     0  01:20           0        4.63       0.245
  WS02003069           JUNCTION      0.32   633.46     0  04:52     0.00902        9.84       0.156
  WS02003072           JUNCTION      0.00   633.31     0  04:52           0        9.83       0.216
  WS02003073           JUNCTION      1.82   634.97     0  04:53      0.0514        9.86       0.225
  WS02003060           JUNCTION     16.53   633.20     0  04:51       0.466        9.85       0.154
  WS02003066           JUNCTION      0.00   419.84     0  03:24           0         4.8       0.061
  WS02003059           JUNCTION      0.00   292.52     0  01:20           0        4.62       0.564
  WS02003067           JUNCTION      0.00   419.82     0  03:24           0        4.81       0.141
  WS02004401           JUNCTION      0.00   426.58     0  03:19           0        4.99       0.359
  WS02004402           JUNCTION      0.00   425.47     0  03:19           0        4.97       0.345
  WS02004403           JUNCTION      0.00   424.80     0  03:19           0        4.95       0.320
  WS02004404           JUNCTION      0.16   424.59     0  03:19     0.00457        4.94       0.247
  WS02004406           JUNCTION      0.00   424.38     0  03:21           0        4.91       0.607
  WS02004409           JUNCTION      0.00   424.10     0  03:21           0        4.88       0.218
  WS02004410           JUNCTION      0.00   422.44     0  03:22           0        4.87       0.251
  WS02004411           JUNCTION      0.00   421.19     0  03:22           0        4.86       0.263
  WS02004412           JUNCTION      0.00   420.36     0  03:23           0        4.84       0.295
  WS02004413           JUNCTION      0.00   419.95     0  03:24           0        4.83       0.463
  WS02004405           JUNCTION      0.04   424.43     0  03:19     0.00107        4.93       0.371
  WS02006109           JUNCTION      1.23   442.51     0  02:54      0.0347        5.08       0.303
  WS02006110           JUNCTION      0.00   442.56     0  02:54           0        5.06       0.366
  WS02006111           JUNCTION      0.00   453.63     0  02:56           0        5.03       0.070
  WS02006112           JUNCTION      3.78   445.97     0  02:55       0.014        5.05       0.518
  WS02006113           JUNCTION      0.00   442.44     0  02:55           0        5.04       0.156
  WS02006115           JUNCTION      0.00   437.66     0  02:56           0        5.02       0.326
  WS02006116           JUNCTION      0.00   428.12     0  03:18           0           5       0.282
  WS02006230           JUNCTION     10.28   386.99     0  03:15        0.29         4.5       0.178
  WS02006231           JUNCTION      0.00   377.81     0  03:13           0        4.22       0.280
  WS02006232           JUNCTION      0.00   378.49     0  03:13           0        4.23       0.314
  WS02006234           JUNCTION      0.00   381.71     0  03:13           0        4.24       0.145
  WS02006235           JUNCTION      0.00   384.99     0  03:11           0        4.28       0.181
  WS02006238           JUNCTION      0.00   316.71     0  04:40           0        2.73       0.211
  WS02006240           JUNCTION      0.00   312.28     0  03:11           0        2.72       0.274
  WS02006242           JUNCTION      0.00   322.51     0  03:11           0        2.72       0.328
  WS02006243           JUNCTION      0.00   334.47     0  03:11           0         2.7      -0.365
  WS02006245           JUNCTION      0.00   340.99     0  03:11           0        2.71       0.445
  WS02006247           JUNCTION      0.00   347.58     0  03:10           0        2.71       0.155
  WS02006248           JUNCTION      0.00   353.41     0  03:10           0        2.71      -0.064
  WS02006249           JUNCTION      0.00   396.60     0  03:10           0        2.74       0.368
  WS02006239           JUNCTION      0.00   311.49     0  04:40           0        2.73       0.240
  WS02006251           JUNCTION      0.08   400.14     0  03:10     0.00217        2.78       0.122
  WS02006252           JUNCTION      0.00   399.94     0  03:10           0        2.67       0.009
  WS02006253           JUNCTION      0.57    34.92     0  04:42     0.00181       0.111       1.359
  WS02006256           JUNCTION      0.00   440.79     0  03:14           0        2.28       0.098
  WS02004138           JUNCTION      0.00   285.00     0  01:12           0        4.47       0.063
  WS02004407           JUNCTION      0.00   424.16     0  03:21           0        4.88       0.111
  WS02006228           JUNCTION      0.00   441.47     0  02:54           0        5.05       0.241
  WS02006229           JUNCTION      0.00   441.48     0  02:54           0        5.06       0.213
  WS02006280           JUNCTION      0.00    92.20     0  02:31           0       0.573       0.013
  WS02006284           JUNCTION      0.10    92.20     0  02:30      0.0027       0.574       0.205
  WS02006287           JUNCTION      0.00    92.11     0  02:30           0       0.572       0.121
  WSF200               JUNCTION      0.00   419.83     0  03:24           0         4.8       0.049
  HS02004901           JUNCTION      4.68     4.68     0  02:19      0.0168       0.017      11.560
  HS02004881           JUNCTION      1.90    15.83     0  02:30     0.00732      0.0754       0.229
  HS02004876           JUNCTION      3.05    14.15     0  02:29       0.014      0.0686       0.759
  HS02004870           JUNCTION      3.36    11.16     0  02:29      0.0138      0.0548       0.194
  HS02004862           JUNCTION      2.90     8.01     0  02:30      0.0193      0.0411       0.405
  HS02004856           JUNCTION      2.49     5.12     0  02:29      0.0104      0.0232       6.604
  HS02004852           JUNCTION      0.00     2.78     0  02:30           0      0.0128       0.368
  HS02004848           JUNCTION      5.60     5.60     0  02:33      0.0324      0.0324       0.129
  HS02004842           JUNCTION      0.00     4.48     0  00:03           0      0.0326      66.353
  HS02004837           JUNCTION     11.75    14.45     0  02:28       0.203       0.223       0.365
  HS02004830           JUNCTION      0.15    14.59     0  02:29     0.00423       0.213       0.581
  HS02004824           JUNCTION      6.36    20.87     0  02:33      0.0427       0.254       0.212
  HS02004817           JUNCTION      0.60    21.47     0  02:34      0.0169       0.271       6.553
  HS02004807           JUNCTION      6.31    27.27     0  02:31      0.0255        0.28       1.533
  HS02004802           JUNCTION      0.00    27.33     0  02:33           0       0.275       1.498
  HS02004799           JUNCTION      4.87    55.23     0  02:27      0.0206       0.272       0.829
  HS02004792           JUNCTION     21.85    50.49     0  02:27      0.0937       0.252       0.166
  HS02004788           JUNCTION      8.28    29.65     0  02:29      0.0756        0.16       0.247
  HS02004785           JUNCTION      0.15    21.63     0  02:28     0.00423       0.086       0.558
  HS02004777           JUNCTION      0.03    21.77     0  02:25    0.000846      0.0862       6.380
  HS02004770           JUNCTION     18.36    22.42     0  02:21      0.0717      0.0869       3.699
  HS02004480           JUNCTION      0.00    65.01     0  02:29           0       0.313       0.211
  HS02004479           JUNCTION      0.00     9.94     0  02:31           0      0.0528       1.396
  HS02004478           JUNCTION      0.00    92.11     0  02:30           0       0.573       0.118
  YS02001745           JUNCTION     31.39    31.39     0  03:01       0.375       0.375       0.084
  YS02001748           JUNCTION      0.04    31.41     0  03:01     0.00127       0.376       0.041
  YS02001751           JUNCTION      0.01    57.17     0  04:33     0.00031       0.476       0.263
  YS02001754           JUNCTION      0.26   181.42     0  04:41     0.00733       0.844       1.351
  YS02001762           JUNCTION      0.00    46.03     0  03:18           0       0.494       2.835
  YS02001765           JUNCTION      0.00    69.12     0  04:37           0       0.484       3.078
  YS02001767           JUNCTION      0.54    58.85     0  05:01      0.0151       0.489       3.983
  YS02001770           JUNCTION     41.39    47.05     0  02:59       0.453       0.471       3.548
  YS02001774           JUNCTION      0.00    20.39     0  02:35           0      0.0777      23.085
  YS02001779           JUNCTION      0.01    12.03     0  04:29    0.000141      0.0455      12.411
  YS02001882           JUNCTION      0.00     1.72     0  02:23           0     0.00302      82.268
  YS02001884           JUNCTION      0.00     5.30     0  02:09           0      0.0124      51.001
  YS02001759           JUNCTION     40.69    90.35     0  04:38       0.426       0.893       1.771
  YS02001887           JUNCTION     54.21    54.21     0  03:01       0.527       0.533       1.221
  YS02001890           JUNCTION      0.00    53.72     0  03:01           0       0.515       1.393
  YS02001898           JUNCTION      0.00    53.40     0  03:02           0       0.505       0.343
  YS02001901           JUNCTION      0.00    53.43     0  03:02           0       0.505       0.958
  YS02001904           JUNCTION      0.00    53.32     0  03:03           0       0.505       0.896
  YS02001907           JUNCTION      0.00    96.70     0  03:04           0        1.08       1.980
  YS02001910           JUNCTION      0.00    43.52     0  03:01           0       0.582       1.616
  YS02001915           JUNCTION     28.48    43.64     0  03:01       0.325       0.586       0.636
  YS02001918           JUNCTION      0.00    15.42     0  03:04           0       0.261       0.288
  YS02001619           JUNCTION     27.58    27.58     0  03:01       0.319       0.319       0.165
  YS02001629           JUNCTION      0.00    30.08     0  02:55           0       0.305       1.835
  YS02001641           JUNCTION      0.00    62.08     0  03:14           0        0.64       1.973
  YS02001644           JUNCTION     29.76    88.17     0  03:14       0.359       0.979       1.563
  YS02001652           JUNCTION      0.00    56.94     0  04:45           0       0.428       2.164
  YS02001655           JUNCTION      0.15    38.31     0  03:01     0.00434       0.387       0.776
  YS02001920           JUNCTION      2.87    15.44     0  03:03      0.0809       0.263       0.614
  YS02001923           JUNCTION      0.04    12.57     0  03:03     0.00106       0.182       0.110
  YS02001926           JUNCTION      0.05    12.59     0  03:01     0.00147       0.182       0.804
  YS02001929           JUNCTION     12.55    12.55     0  03:01       0.181       0.181       0.103
  YS02001658           JUNCTION      0.00    38.16     0  03:01           0       0.377       0.052
  YS02001661           JUNCTION      0.00    38.18     0  03:01           0       0.378       0.186
  YS02001664           JUNCTION     38.18    38.18     0  03:01       0.378       0.378       0.036
  YS02001622           JUNCTION      0.00    28.21     0  02:59           0       0.319       0.764
  YS02001633           JUNCTION     30.27    64.28     0  02:55       0.371       0.663       2.777
  YS02001649           JUNCTION      0.00   135.04     0  03:15           0        1.35       1.732
  YS02001757           JUNCTION      0.00   326.45     0  04:37           0        2.81       2.450
  YS02001895           JUNCTION      0.00    53.56     0  03:01           0       0.508       0.579
  YS02001625           JUNCTION      0.00    31.44     0  02:54           0       0.317       4.716
  YS02163301           JUNCTION      0.00    32.37     0  02:55           0       0.306       4.050
  YS02163601           JUNCTION      0.11    61.32     0  02:55      0.0031       0.644       3.043
  YS02164001           JUNCTION      0.00    62.05     0  03:14           0       0.635       1.836
  YS02001647           JUNCTION      0.00    90.43     0  02:56           0       0.952       1.272
  YSB1154              JUNCTION      5.42     5.42     0  02:25      0.0249      0.0263       5.808
  YSB6556              JUNCTION      0.00     5.38     0  02:29           0      0.0274       4.754
  YSB1174              JUNCTION      5.32     5.32     0  02:18      0.0183      0.0193       7.142
  YSB1171              JUNCTION      0.00     9.99     0  02:27           0      0.0522      13.757
  YS02006553           JUNCTION      0.00    96.83     0  03:05           0        1.06       1.293
  YS02006561           JUNCTION      0.00   141.62     0  03:03           0         1.5       0.032
  YS02006556           JUNCTION      0.00    96.96     0  03:05           0        1.07       0.924
  YS02006558           JUNCTION     46.03   141.63     0  03:03       0.481        1.52       0.277
  YS02001783           JUNCTION      0.00   141.61     0  03:03           0         1.5       0.075
  YS02001784           JUNCTION      1.06   142.67     0  03:03      0.0299        1.53       0.127
  YS02001786           JUNCTION      0.06   142.73     0  03:04     0.00159        1.53       0.124
  YS02001788           JUNCTION      0.07   142.80     0  03:04       0.002        1.53       0.068
  YS02001790           JUNCTION      0.15   142.95     0  03:04     0.00437        1.53       0.089
  YS02001791           JUNCTION      0.00   142.94     0  03:05           0        1.53       0.042
  YS02001793           JUNCTION      0.00   142.94     0  03:05           0        1.53       0.026
  WS02004139           JUNCTION      0.32   285.35     0  01:10     0.00905        4.48       0.553
  WSC                  OUTFALL       0.00   634.75     0  04:53           0        9.84       0.000
  3                    OUTFALL       0.00   350.91     0  03:14           0         0.7       0.000
  4                    OUTFALL       0.00    43.71     0  03:12           0       0.023       0.000
  5                    OUTFALL       0.00     0.00     0  00:00           0           0       0.000 ltr
  JK-storage           STORAGE       0.00   142.94     0  03:05           0        1.68     -26.193
  CC-storage           STORAGE       0.00   228.91     0  03:15           0        2.38     -10.952
  XR-storage           STORAGE     251.96   251.96     0  03:01        6.26        6.86       0.000
  
  
  **********************
  Node Surcharge Summary
  **********************
  
  Surcharging occurs when water rises above the top of the highest conduit.
  ---------------------------------------------------------------------
                                               Max. Height   Min. Depth
                                   Hours       Above Crown    Below Rim
  Node                 Type      Surcharged         Meters       Meters
  ---------------------------------------------------------------------
  WS02006109           JUNCTION        0.32          0.046        1.774
  WS02006232           JUNCTION        0.27          0.043        1.437
  WS02006235           JUNCTION        0.07          0.017        1.273
  WS02006238           JUNCTION        0.16          0.036        1.394
  WS02006242           JUNCTION        0.05          0.010        0.810
  WS02006252           JUNCTION        0.55          0.185        0.915
  WS02006228           JUNCTION        0.31          0.051        2.149
  
  
  *********************
  Node Flooding Summary
  *********************
  
  Flooding refers to all water that overflows a node, whether it ponds or not.
  --------------------------------------------------------------------------
                                                             Total   Maximum
                                 Maximum   Time of Max       Flood    Ponded
                        Hours       Rate    Occurrence      Volume     Depth
  Node                 Flooded       LPS   days hr:min    10^6 ltr    Meters
  --------------------------------------------------------------------------
  XR-storage              3.52    251.69      0  03:00       1.459     0.000
  
  
  **********************
  Storage Volume Summary
  **********************
  
  --------------------------------------------------------------------------------------------------
                         Average     Avg  Evap Exfil       Maximum     Max    Time of Max    Maximum
                          Volume    Pcnt  Pcnt  Pcnt        Volume    Pcnt     Occurrence    Outflow
  Storage Unit           1000 m3    Full  Loss  Loss       1000 m3    Full    days hr:min        LPS
  --------------------------------------------------------------------------------------------------
  JK-storage               0.014       5     0     0         0.151      52       0  00:10     440.79
  CC-storage               0.027       0     0     0         0.125       1       0  05:44     399.94
  XR-storage               0.900      97     0     0         0.926     100       0  02:10     285.00
  
  
  ***********************
  Outfall Loading Summary
  ***********************
  
  -----------------------------------------------------------
                         Flow       Avg       Max       Total
                         Freq      Flow      Flow      Volume
  Outfall Node           Pcnt       LPS       LPS    10^6 ltr
  -----------------------------------------------------------
  WSC                  100.00    407.65    634.75       9.836
  3                     38.76    106.61    350.91       0.700
  4                     10.19     15.67     43.71       0.023
  5                      0.00      0.00      0.00       0.000
  -----------------------------------------------------------
  System                37.24    529.92    880.30      10.559
  
  
  ********************
  Link Flow Summary
  ********************
  
  -----------------------------------------------------------------------------
                                 Maximum  Time of Max   Maximum    Max/    Max/
                                  |Flow|   Occurrence   |Veloc|    Full    Full
  Link                 Type          LPS  days hr:min     m/sec    Flow   Depth
  -----------------------------------------------------------------------------
  WS02003066WSF200     CONDUIT    419.83     0  03:24      2.64    0.07    0.20
  WS02006287WS02006284 CONDUIT     92.10     0  02:30      1.22    0.04    0.15
  WS02006284WS02006280 CONDUIT     92.20     0  02:31      1.47    0.04    0.13
  WS02006280WS02006229 CONDUIT     92.20     0  02:31      2.36    0.02    0.10
  WS02006229WS02006228 CONDUIT    441.47     0  02:54      0.88    1.46    1.00
  WS02006256WS02006235 CONDUIT    149.95     0  00:15      2.14    1.59    1.00
  WS02006253WS02006251 CONDUIT     62.31     0  07:42      0.35    0.19    0.85
  WS02006252WS02006251 CONDUIT    400.07     0  03:10      3.18    1.47    1.00
  WS02006251WS02006249 CONDUIT    396.60     0  03:10      1.17    1.14    0.82
  WS02006249WS02006248 CONDUIT    353.41     0  03:10      1.16    1.94    0.77
  WS02006248WS02006247 CONDUIT    347.58     0  03:10      1.13    0.76    0.81
  WS02006247WS02006245 CONDUIT    340.99     0  03:11      1.09    2.70    0.85
  WS02006245WS02006243 CONDUIT    334.47     0  03:11      1.13    0.99    0.86
  WS02006243WS02006242 CONDUIT    322.51     0  03:11      0.97    0.69    0.95
  WS02006242WS02006240 CONDUIT    312.28     0  03:11      0.87    1.24    0.98
  WS02006240WS02006239 CONDUIT    311.49     0  04:40      0.94    0.98    0.97
  WS02006239WS02006238 CONDUIT    316.71     0  04:40      0.89    1.01    1.00
  WS02006238WS02006235 CONDUIT    317.56     0  04:40      0.88    0.71    1.00
  WS02006235WS02006234 CONDUIT    381.71     0  03:13      1.03    4.03    0.98
  WS02006234WS02006232 CONDUIT    378.49     0  03:13      0.99    0.77    0.99
  WS02006232WS02006231 CONDUIT    377.81     0  03:13      1.03    0.79    0.92
  WS02006231WS02006230 CONDUIT    376.71     0  03:15      1.32    5.71    0.78
  WS02006230WS02006229 CONDUIT    386.57     0  03:15      1.00    8.60    1.00
  WS02006228WS02006109 CONDUIT    441.28     0  02:54      0.88    1.93    1.00
  WS02006116WS02004401 CONDUIT    426.58     0  03:19      0.79    0.59    0.75
  WS02006115WS02006116 CONDUIT    428.12     0  03:18      0.94    0.55    0.67
  WS02006113WS02006111 CONDUIT    453.63     0  02:56      2.29    0.54    0.42
  WS02006112WS02006115 CONDUIT    437.66     0  02:56      0.70    0.26    0.79
  WS02006111WS02006112 CONDUIT    443.94     0  02:55      1.27    0.21    0.66
  WS02006110WS02006113 CONDUIT    442.44     0  02:55      1.09    0.40    0.75
  WS02006109WS02006110 CONDUIT    442.56     0  02:54      0.89    0.85    0.96
  WS02004411WS02004412 CONDUIT    420.36     0  03:23      0.82    0.60    0.62
  WS02004401WS02004402 CONDUIT    425.47     0  03:19      0.84    0.51    0.78
  WS02004413WS02003067 CONDUIT    419.82     0  03:24      0.97    0.18    0.54
  WS02004412WS02004413 CONDUIT    419.95     0  03:24      0.71    0.28    0.71
  WS02004410WS02004411 CONDUIT    421.19     0  03:22      0.85    0.58    0.61
  WS02004409WS02004410 CONDUIT    422.44     0  03:22      0.91    0.55    0.59
  WS02004407WS02004409 CONDUIT    424.10     0  03:21      1.42    0.15    0.42
  WS02004406WS02004407 CONDUIT    424.16     0  03:21      0.90    0.19    0.58
  WS02004405WS02004406 CONDUIT    424.38     0  03:21      0.76    0.84    0.89
  WS02004404WS02004405 CONDUIT    424.39     0  03:19      0.96    4.16    0.89
  WS02004403WS02004404 CONDUIT    424.43     0  03:19      0.85    0.31    0.85
  WS02004402WS02004403 CONDUIT    424.80     0  03:19      0.87    0.61    0.80
  WS02004139WS02001211 CONDUIT    285.27     0  01:20      0.69    0.36    0.52
  WS02004138WS02004139 CONDUIT    285.03     0  01:10      2.95    0.06    0.38
  WS02003067WS02003066 CONDUIT    419.84     0  03:24      1.05    0.13    0.38
  WS02001213WS02003059 CONDUIT    292.52     0  01:20      0.65    0.48    0.67
  WS02001212WS02001213 CONDUIT    292.57     0  01:20      1.19    0.45    0.37
  WS02001211WS02001212 CONDUIT    292.59     0  01:20      0.67    0.22    0.56
  WS02003072WS02003073 CONDUIT    633.15     0  04:53      1.50    1.37    0.40
  WS02003069WS02003072 CONDUIT    633.31     0  04:52      1.43    0.30    0.41
  WS02003060WS02003069 CONDUIT    633.14     0  04:52      1.70    0.25    0.36
  WS02003059WS02003060 CONDUIT    293.22     0  07:11      0.81    0.19    0.56
  HS02004901HS02004770 CONDUIT      4.25     0  02:26      0.03    0.02    0.24
  HS02004876HS02004881 CONDUIT     14.11     0  02:31      0.32    0.15    0.06
  HS02004870HS02004876 CONDUIT     11.15     0  02:30      0.23    0.01    0.07
  HS02004842HS02004848 CONDUIT      2.95     0  02:43      0.02    0.00    0.26
  HS02004837HS02004842 CONDUIT      4.48     0  00:03      0.42    0.00    0.27
  HS02004830HS02004837 CONDUIT     14.44     0  02:29      0.36    0.01    0.06
  HS02004824HS02004830 CONDUIT     14.59     0  02:30      0.40    0.02    0.05
  HS02004817HS02004824 CONDUIT     20.87     0  02:34      0.17    0.01    0.36
  HS02004770HS02004777 CONDUIT     21.74     0  02:25      0.12    0.04    0.25
  HS02004799HS02004480 CONDUIT     55.15     0  02:28      0.38    0.07    0.21
  HS02004792HS02004799 CONDUIT     50.46     0  02:28      0.44    0.03    0.16
  HS02004788HS02004792 CONDUIT     29.63     0  02:29      0.61    0.02    0.07
  HS02004785HS02004788 CONDUIT     21.54     0  02:29      0.34    0.16    0.09
  HS02004777HS02004785 CONDUIT     21.48     0  02:28      0.16    0.03    0.20
  HS02004480HS02004478 CONDUIT     64.98     0  02:29      0.67    0.27    0.14
  HS02004479HS02004480 CONDUIT     10.01     0  02:32      0.15    0.01    0.21
  HS02004862HS02004870 CONDUIT      7.99     0  02:31      0.32    0.01    0.04
  HS02004848HS02004852 CONDUIT      2.78     0  02:30      0.20    0.00    0.02
  HS02004856HS02004862 CONDUIT      5.11     0  02:30      0.23    0.01    0.03
  HS02004852HS02004856 CONDUIT      2.76     0  02:32      0.05    0.00    0.07
  HS02004802HS02004478 CONDUIT     27.42     0  02:34      0.20    0.02    0.19
  HS02004478WS02006287 CONDUIT     92.11     0  02:30      0.91    0.03    0.11
  HS02004817HS02004807 CONDUIT     21.63     0  02:36      0.07    0.01    0.44
  HS02004807HS02004802 CONDUIT     27.33     0  02:33      0.19    0.05    0.23
  YS02001759YS02001757 CONDUIT     87.73     0  03:00      0.13    0.06    0.84
  YS02001762YS02001759 CONDUIT     69.89     0  04:38      0.17    0.08    0.77
  YS02001765YS02001762 CONDUIT     46.03     0  03:18      0.22    0.04    0.73
  YS02001770YS02001767 CONDUIT     48.55     0  03:10      0.28    0.19    0.66
  YS02001774YS02001770 CONDUIT     20.39     0  02:35      0.12    0.01    0.68
  YS02001779YS02001774 CONDUIT     12.03     0  04:29      0.05    0.01    0.60
  YS02001649YS02001757 CONDUIT    134.59     0  03:15      0.19    0.08    0.83
  YS02001767YS02001765 CONDUIT     69.12     0  04:37      0.26    0.09    0.68
  YS02006561YS02001783 CONDUIT    141.61     0  03:03      1.45    0.07    0.25
  YS02001783YS02001784 CONDUIT    141.61     0  03:03      0.95    0.20    0.34
  YS02001784YS02001785 CONDUIT    142.67     0  03:04      0.98    0.33    0.33
  YS02001788YS02001790 CONDUIT    142.79     0  03:04      1.51    0.11    0.24
  YS02001790YS02001791 CONDUIT    142.94     0  03:05      1.71    0.16    0.22
  YS02001791YS02001793 CONDUIT    142.94     0  03:05      3.44    0.06    0.15
  YS02001910YS02001907 CONDUIT     43.57     0  03:05      0.49    0.02    0.60
  YS02001786YS02001788 CONDUIT    142.73     0  03:04      1.36    0.28    0.26
  YS02001915YS02001910 CONDUIT     43.52     0  03:01      0.44    0.02    0.39
  YS02001918YS02001915 CONDUIT     15.41     0  03:05      0.44    0.01    0.17
  YS02001923YS02001920 CONDUIT     12.57     0  03:03      0.29    0.01    0.10
  YS02001926YS02001923 CONDUIT     12.53     0  03:03      0.35    0.02    0.09
  YS02001929YS02001926 CONDUIT     12.54     0  03:01      0.36    0.01    0.09
  YS02001920YS02001918 CONDUIT     15.42     0  03:04      0.33    0.01    0.11
  YS02001629YS02163301 CONDUIT     32.37     0  02:55      0.08    0.04    0.62
  YS02001619YS02001622 CONDUIT     28.21     0  02:59      0.50    0.04    0.24
  YS02001622YS02001625 CONDUIT     31.44     0  02:54      0.16    0.02    0.40
  YS02001625YS02001629 CONDUIT     30.08     0  02:55      0.16    0.01    0.39
  YS02163301YS02001633 CONDUIT     34.77     0  02:55      0.07    0.03    0.67
  YS02163601YS02164001 CONDUIT     62.05     0  03:14      0.10    0.05    0.72
  YS02164001YS02001641 CONDUIT     62.08     0  03:14      0.11    0.08    0.70
  YS02001641YS02001644 CONDUIT     60.56     0  03:14      0.11    0.20    0.72
  YS02001647YS02001649 CONDUIT     90.46     0  02:56      0.17    0.05    0.65
  YS02006553YS02006556 CONDUIT     96.96     0  03:05      0.18    0.08    0.68
  YS02006556YS02006558 CONDUIT     97.03     0  03:05      0.16    0.08    0.71
  YSB6556YSB1171       CONDUIT      5.43     0  02:33      0.03    0.01    0.48
  YS02001907YS02006553 CONDUIT     96.83     0  03:05      0.14    0.11    0.78
  YS02006558YS02006561 CONDUIT    141.62     0  03:03      1.86    0.31    0.31
  YS02001633YS02163601 CONDUIT     61.21     0  02:55      0.11    0.06    0.72
  YS02001644YS02001647 CONDUIT     90.43     0  02:56      0.18    0.05    0.63
  YS02001745YS02001748 CONDUIT     31.36     0  03:01      1.12    0.01    0.08
  YS02001748YS02001751 CONDUIT     31.40     0  03:01      0.89    0.02    0.18
  YS02001751YS02001754 CONDUIT     77.51     0  04:33      0.80    0.04    0.38
  YS02001754YS02001757 CONDUIT    145.37     0  04:40      0.33    0.06    0.72
  YS02001882YS02001884 CONDUIT      1.72     0  02:23      0.06    0.00    0.32
  YS02001884YS02001887 CONDUIT      5.30     0  02:09      0.04    0.01    0.41
  YS02001890YS02001895 CONDUIT     53.56     0  03:01      0.19    0.02    0.39
  YS02001895YS02001898 CONDUIT     53.40     0  03:02      0.39    0.09    0.25
  YS02001898YS02001901 CONDUIT     53.43     0  03:02      0.24    0.03    0.33
  YS02001901YS02001904 CONDUIT     53.32     0  03:03      0.19    0.08    0.38
  YS02001904YS02001907 CONDUIT     53.41     0  03:03      0.12    0.02    0.54
  YS02001887YS02001890 CONDUIT     53.72     0  03:01      0.15    0.09    0.47
  YS02001652YS02001649 CONDUIT     53.93     0  04:37      0.24    0.03    0.66
  YS02001655YS02001652 CONDUIT     46.47     0  03:07      0.86    0.02    0.41
  YS02001658YS02001655 CONDUIT     38.15     0  03:01      1.01    0.02    0.19
  YS02001661YS02001658 CONDUIT     38.16     0  03:01      1.14    0.01    0.09
  YS02001664YS02001661 CONDUIT     38.18     0  03:01      0.75    0.01    0.12
  YSB1154YSB6556       CONDUIT      5.38     0  02:29      0.19    0.01    0.37
  YSB1174YSB1171       CONDUIT      4.94     0  02:21      0.03    0.01    0.48
  YSB1171HS02004479    CONDUIT      9.94     0  02:31      0.54    0.01    0.36
  HS02004881HS02006253 CONDUIT     15.83     0  02:30      1.17    0.00    0.21
  YS02001793JiankangQianchi CONDUIT    142.94     0  03:05     10.36    0.01    0.54
  YS02001757CaochengTiaoxuchi CONDUIT    228.91     0  03:15      0.68    0.10    0.46
  WSF200WS02003060     CONDUIT    419.86     0  03:25      1.86    0.09    0.27
  1                    CONDUIT    634.75     0  04:53      2.94    0.22    0.32
  2                    CONDUIT     43.71     0  03:12      3.83    0.10    0.22
  3                    CONDUIT    350.91     0  03:14      9.05    0.56    0.54
  4                    CONDUIT      0.00     0  00:00      0.00    0.00    0.00
  CC-Pump-1            PUMP       200.00     0  04:00              1.00
  CC-Pump-2            PUMP       200.00     0  03:10              1.00
  JK-Pump-1            PUMP       300.00     0  03:10              1.00
  JK-Pump-2            PUMP       299.93     0  05:00              1.00
  XR-Pump-1            PUMP        95.00     0  00:00              1.00
  XR-Pump-2            PUMP        95.00     0  04:30              1.00
  XR-Pump-3            PUMP        95.00     0  01:10              1.00
  XR-Pump-4            PUMP        95.00     0  00:00              1.00
  
  
  ***************************
  Flow Classification Summary
  ***************************
  
  -------------------------------------------------------------------------------------
                      Adjusted    ---------- Fraction of Time in Flow Class ---------- 
                       /Actual         Up    Down  Sub   Sup   Up    Down  Norm  Inlet 
  Conduit               Length    Dry  Dry   Dry   Crit  Crit  Crit  Crit  Ltd   Ctrl  
  -------------------------------------------------------------------------------------
  WS02003066WSF200        1.00   0.05  0.00  0.00  0.00  0.95  0.00  0.00  0.84  0.00
  WS02006287WS02006284    1.00   0.05  0.02  0.00  0.73  0.21  0.00  0.00  0.81  0.00
  WS02006284WS02006280    1.00   0.05  0.00  0.00  0.00  0.00  0.00  0.95  0.00  0.00
  WS02006280WS02006229    1.00   0.05  0.00  0.00  0.00  0.00  0.00  0.95  0.00  0.00
  WS02006229WS02006228    1.00   0.00  0.00  0.00  1.00  0.00  0.00  0.00  0.00  0.00
  WS02006256WS02006235    1.00   0.00  0.00  0.00  0.99  0.00  0.00  0.00  0.00  0.00
  WS02006253WS02006251    1.00   0.03  0.02  0.00  0.95  0.00  0.00  0.00  0.00  0.00
  WS02006252WS02006251    1.00   0.11  0.00  0.00  0.00  0.00  0.89  0.00  0.00  0.00
  WS02006251WS02006249    1.00   0.00  0.00  0.00  1.00  0.00  0.00  0.00  0.39  0.00
  WS02006249WS02006248    1.00   0.00  0.00  0.00  0.81  0.00  0.18  0.00  0.00  0.00
  WS02006248WS02006247    1.00   0.00  0.00  0.00  0.97  0.00  0.00  0.03  0.31  0.00
  WS02006247WS02006245    1.00   0.01  0.00  0.00  0.96  0.00  0.00  0.03  0.00  0.00
  WS02006245WS02006243    1.00   0.01  0.00  0.00  0.90  0.00  0.00  0.09  0.04  0.00
  WS02006243WS02006242    1.00   0.01  0.00  0.00  0.99  0.00  0.00  0.00  0.30  0.00
  WS02006242WS02006240    1.00   0.01  0.00  0.00  0.99  0.00  0.00  0.00  0.00  0.00
  WS02006240WS02006239    1.00   0.01  0.00  0.00  0.93  0.00  0.00  0.06  0.01  0.00
  WS02006239WS02006238    1.00   0.01  0.00  0.00  0.99  0.00  0.00  0.00  0.02  0.00
  WS02006238WS02006235    1.00   0.01  0.00  0.00  0.99  0.00  0.00  0.00  0.00  0.00
  WS02006235WS02006234    1.00   0.01  0.00  0.00  0.94  0.00  0.06  0.00  0.00  0.00
  WS02006234WS02006232    1.00   0.01  0.00  0.00  0.99  0.00  0.00  0.00  0.10  0.00
  WS02006232WS02006231    1.00   0.01  0.00  0.00  0.99  0.00  0.00  0.00  0.00  0.00
  WS02006231WS02006230    1.00   0.01  0.00  0.00  0.20  0.00  0.79  0.00  0.00  0.00
  WS02006230WS02006229    1.00   0.00  0.00  0.00  0.99  0.00  0.00  0.01  0.00  0.00
  WS02006228WS02006109    1.00   0.00  0.00  0.00  1.00  0.00  0.00  0.00  0.01  0.00
  WS02006116WS02004401    1.00   0.03  0.00  0.00  0.97  0.00  0.00  0.00  0.00  0.00
  WS02006115WS02006116    1.00   0.03  0.00  0.00  0.96  0.00  0.00  0.01  0.00  0.00
  WS02006113WS02006111    1.00   0.02  0.00  0.00  0.00  0.98  0.00  0.00  0.17  0.00
  WS02006112WS02006115    1.00   0.02  0.01  0.00  0.97  0.00  0.00  0.00  0.00  0.00
  WS02006111WS02006112    1.00   0.02  0.00  0.00  0.97  0.00  0.00  0.00  0.95  0.00
  WS02006110WS02006113    1.00   0.00  0.01  0.00  0.98  0.00  0.00  0.00  0.00  0.00
  WS02006109WS02006110    1.00   0.00  0.00  0.00  0.99  0.00  0.00  0.00  0.00  0.00
  WS02004411WS02004412    1.00   0.04  0.00  0.00  0.96  0.00  0.00  0.00  0.00  0.00
  WS02004401WS02004402    1.00   0.03  0.00  0.00  0.97  0.00  0.00  0.00  0.00  0.00
  WS02004413WS02003067    1.00   0.04  0.01  0.00  0.00  0.00  0.95  0.00  0.00  0.00
  WS02004412WS02004413    1.00   0.04  0.00  0.00  0.96  0.00  0.00  0.00  0.01  0.00
  WS02004410WS02004411    1.00   0.04  0.00  0.00  0.96  0.00  0.00  0.00  0.00  0.00
  WS02004409WS02004410    1.00   0.04  0.00  0.00  0.96  0.00  0.00  0.00  0.02  0.00
  WS02004407WS02004409    1.00   0.04  0.00  0.00  0.96  0.00  0.00  0.00  0.92  0.00
  WS02004406WS02004407    1.00   0.00  0.04  0.00  0.96  0.00  0.00  0.00  0.00  0.00
  WS02004405WS02004406    1.00   0.00  0.00  0.00  1.00  0.00  0.00  0.00  0.03  0.00
  WS02004404WS02004405    1.00   0.00  0.00  0.00  1.00  0.00  0.00  0.00  0.00  0.00
  WS02004403WS02004404    1.00   0.00  0.03  0.00  0.97  0.00  0.00  0.00  0.00  0.00
  WS02004402WS02004403    1.00   0.03  0.00  0.00  0.97  0.00  0.00  0.00  0.00  0.00
  WS02004139WS02001211    1.00   0.00  0.00  0.00  1.00  0.00  0.00  0.00  0.00  0.00
  WS02004138WS02004139    1.00   0.00  0.00  0.00  1.00  0.00  0.00  0.00  1.00  0.00
  WS02003067WS02003066    1.00   0.05  0.00  0.00  0.95  0.00  0.00  0.00  0.00  0.00
  WS02001213WS02003059    1.00   0.00  0.00  0.00  1.00  0.00  0.00  0.00  0.00  0.00
  WS02001212WS02001213    1.00   0.00  0.00  0.00  0.56  0.00  0.44  0.00  0.00  0.00
  WS02001211WS02001212    1.00   0.00  0.00  0.00  1.00  0.00  0.00  0.00  0.00  0.00
  WS02003072WS02003073    1.00   0.00  0.00  0.00  0.00  0.00  0.00  1.00  0.00  0.00
  WS02003069WS02003072    1.00   0.00  0.00  0.00  1.00  0.00  0.00  0.00  0.51  0.00
  WS02003060WS02003069    1.00   0.00  0.00  0.00  1.00  0.00  0.00  0.00  0.31  0.00
  WS02003059WS02003060    1.00   0.00  0.00  0.00  1.00  0.00  0.00  0.00  0.01  0.00
  HS02004901HS02004770    1.00   0.05  0.00  0.00  0.95  0.00  0.00  0.00  0.03  0.00
  HS02004876HS02004881    1.00   0.00  0.00  0.00  1.00  0.00  0.00  0.00  0.00  0.00
  HS02004870HS02004876    1.00   0.00  0.00  0.00  0.99  0.00  0.00  0.00  0.95  0.00
  HS02004842HS02004848    1.00   0.00  0.06  0.00  0.94  0.00  0.00  0.00  0.71  0.00
  HS02004837HS02004842    1.00   0.00  0.00  0.00  1.00  0.00  0.00  0.00  0.11  0.00
  HS02004830HS02004837    1.00   0.00  0.00  0.00  1.00  0.00  0.00  0.00  0.99  0.00
  HS02004824HS02004830    1.00   0.00  0.00  0.00  1.00  0.00  0.00  0.00  0.00  0.00
  HS02004817HS02004824    1.00   0.00  0.00  0.00  1.00  0.00  0.00  0.00  1.00  0.00
  HS02004770HS02004777    1.00   0.00  0.05  0.00  0.95  0.00  0.00  0.00  0.08  0.00
  HS02004799HS02004480    1.00   0.00  0.01  0.00  0.93  0.00  0.06  0.00  0.00  0.00
  HS02004792HS02004799    1.00   0.00  0.00  0.00  1.00  0.00  0.00  0.00  0.98  0.00
  HS02004788HS02004792    1.00   0.00  0.00  0.00  1.00  0.00  0.00  0.00  0.98  0.00
  HS02004785HS02004788    1.00   0.00  0.00  0.00  1.00  0.00  0.00  0.00  0.00  0.00
  HS02004777HS02004785    1.00   0.00  0.00  0.00  1.00  0.00  0.00  0.00  0.22  0.00
  HS02004480HS02004478    1.00   0.06  0.00  0.00  0.75  0.00  0.00  0.19  0.00  0.00
  HS02004479HS02004480    1.00   0.01  0.00  0.00  0.99  0.00  0.00  0.00  0.16  0.00
  HS02004862HS02004870    1.00   0.00  0.00  0.00  1.00  0.00  0.00  0.00  0.05  0.00
  HS02004848HS02004852    1.00   0.06  0.00  0.00  0.94  0.00  0.00  0.00  0.68  0.00
  HS02004856HS02004862    1.00   0.00  0.09  0.00  0.91  0.00  0.00  0.00  0.72  0.00
  HS02004852HS02004856    1.00   0.05  0.01  0.00  0.94  0.00  0.00  0.00  0.82  0.00
  HS02004802HS02004478    1.00   0.05  0.01  0.00  0.94  0.00  0.00  0.00  0.00  0.00
  HS02004478WS02006287    1.00   0.07  0.00  0.00  0.93  0.00  0.00  0.00  0.81  0.00
  HS02004817HS02004807    1.00   0.00  0.05  0.00  0.95  0.00  0.00  0.00  0.00  0.00
  HS02004807HS02004802    1.00   0.05  0.00  0.00  0.94  0.00  0.00  0.00  0.01  0.00
  YS02001759YS02001757    1.00   0.00  0.00  0.00  1.00  0.00  0.00  0.00  0.17  0.00
  YS02001762YS02001759    1.00   0.00  0.00  0.00  1.00  0.00  0.00  0.00  0.05  0.00
  YS02001765YS02001762    1.00   0.00  0.00  0.00  1.00  0.00  0.00  0.00  0.24  0.00
  YS02001770YS02001767    1.00   0.00  0.00  0.00  1.00  0.00  0.00  0.00  0.00  0.00
  YS02001774YS02001770    1.00   0.00  0.07  0.00  0.93  0.00  0.00  0.00  0.07  0.00
  YS02001779YS02001774    1.00   0.00  0.00  0.00  1.00  0.00  0.00  0.00  0.29  0.00
  YS02001649YS02001757    1.00   0.00  0.00  0.00  1.00  0.00  0.00  0.00  0.20  0.00
  YS02001767YS02001765    1.00   0.00  0.00  0.00  1.00  0.00  0.00  0.00  0.01  0.00
  YS02006561YS02001783    1.00   0.09  0.00  0.00  0.00  0.91  0.00  0.00  0.72  0.00
  YS02001783YS02001784    1.00   0.00  0.09  0.00  0.91  0.00  0.00  0.00  0.17  0.00
  YS02001784YS02001785    1.00   0.00  0.00  0.00  1.00  0.00  0.00  0.00  0.27  0.00
  YS02001788YS02001790    1.00   0.00  0.00  0.00  0.09  0.91  0.00  0.00  0.99  0.00
  YS02001790YS02001791    1.00   0.00  0.00  0.00  0.00  1.00  0.00  0.00  0.30  0.00
  YS02001791YS02001793    1.00   0.00  0.00  0.00  0.00  1.00  0.00  0.00  0.00  0.00
  YS02001910YS02001907    1.00   0.00  0.00  0.00  0.99  0.00  0.00  0.01  0.13  0.00
  YS02001786YS02001788    1.00   0.00  0.00  0.00  0.16  0.84  0.00  0.00  0.00  0.00
  YS02001915YS02001910    1.00   0.00  0.00  0.00  1.00  0.00  0.00  0.00  0.26  0.00
  YS02001918YS02001915    1.00   0.00  0.00  0.00  0.99  0.00  0.00  0.00  0.80  0.00
  YS02001923YS02001920    1.00   0.00  0.00  0.00  1.00  0.00  0.00  0.00  1.00  0.00
  YS02001926YS02001923    1.00   0.00  0.04  0.00  0.00  0.00  0.96  0.00  0.00  0.00
  YS02001929YS02001926    1.00   0.00  0.05  0.00  0.95  0.00  0.00  0.00  0.86  0.00
  YS02001920YS02001918    1.00   0.00  0.00  0.00  1.00  0.00  0.00  0.00  0.00  0.00
  YS02001629YS02163301    1.00   0.08  0.00  0.00  0.92  0.00  0.00  0.00  0.00  0.00
  YS02001619YS02001622    1.00   0.05  0.00  0.00  0.95  0.00  0.00  0.00  0.00  0.00
  YS02001622YS02001625    1.00   0.05  0.00  0.00  0.95  0.00  0.00  0.00  0.15  0.00
  YS02001625YS02001629    1.00   0.06  0.04  0.00  0.89  0.00  0.02  0.00  0.00  0.00
  YS02163301YS02001633    1.00   0.00  0.08  0.00  0.92  0.00  0.00  0.00  0.00  0.00
  YS02163601YS02164001    1.00   0.00  0.04  0.00  0.96  0.00  0.00  0.00  0.00  0.00
  YS02164001YS02001641    1.00   0.00  0.04  0.00  0.96  0.00  0.00  0.00  0.07  0.00
  YS02001641YS02001644    1.00   0.00  0.00  0.00  1.00  0.00  0.00  0.00  0.00  0.00
  YS02001647YS02001649    1.00   0.00  0.09  0.00  0.91  0.00  0.00  0.00  0.01  0.00
  YS02006553YS02006556    1.00   0.00  0.00  0.00  1.00  0.00  0.00  0.00  0.03  0.00
  YS02006556YS02006558    1.00   0.00  0.00  0.00  1.00  0.00  0.00  0.00  0.00  0.00
  YSB6556YSB1171          1.00   0.02  0.03  0.00  0.95  0.00  0.00  0.00  0.00  0.00
  YS02001907YS02006553    1.00   0.00  0.00  0.00  0.99  0.00  0.00  0.00  0.00  0.00
  YS02006558YS02006561    1.00   0.09  0.00  0.00  0.00  0.91  0.00  0.00  0.70  0.00
  YS02001633YS02163601    1.00   0.00  0.00  0.00  1.00  0.00  0.00  0.00  0.20  0.00
  YS02001644YS02001647    1.00   0.00  0.09  0.00  0.91  0.00  0.00  0.00  0.00  0.00
  YS02001745YS02001748    1.00   0.00  0.00  0.00  0.00  0.00  0.00  1.00  0.00  0.00
  YS02001748YS02001751    1.00   0.00  0.00  0.00  0.97  0.03  0.00  0.00  0.91  0.00
  YS02001751YS02001754    1.00   0.00  0.00  0.00  0.90  0.00  0.00  0.10  0.03  0.00
  YS02001754YS02001757    1.00   0.00  0.00  0.00  1.00  0.00  0.00  0.00  0.28  0.00
  YS02001882YS02001884    1.00   0.07  0.01  0.00  0.92  0.00  0.00  0.00  0.00  0.00
  YS02001884YS02001887    1.00   0.04  0.01  0.00  0.95  0.00  0.00  0.00  0.00  0.00
  YS02001890YS02001895    1.00   0.00  0.08  0.00  0.92  0.00  0.00  0.00  0.00  0.00
  YS02001895YS02001898    1.00   0.08  0.00  0.00  0.91  0.00  0.01  0.00  0.00  0.00
  YS02001898YS02001901    1.00   0.08  0.01  0.00  0.92  0.00  0.00  0.00  0.02  0.00
  YS02001901YS02001904    1.00   0.08  0.00  0.00  0.92  0.00  0.00  0.00  0.00  0.00
  YS02001904YS02001907    1.00   0.00  0.07  0.00  0.92  0.00  0.00  0.00  0.00  0.00
  YS02001887YS02001890    1.00   0.00  0.00  0.00  0.99  0.00  0.01  0.00  0.00  0.00
  YS02001652YS02001649    1.00   0.00  0.00  0.00  1.00  0.00  0.00  0.00  0.28  0.00
  YS02001655YS02001652    1.00   0.00  0.00  0.00  0.90  0.00  0.00  0.09  0.03  0.00
  YS02001658YS02001655    1.00   0.00  0.07  0.00  0.90  0.03  0.00  0.00  0.79  0.00
  YS02001661YS02001658    1.00   0.07  0.00  0.00  0.00  0.93  0.00  0.00  0.72  0.00
  YS02001664YS02001661    1.00   0.05  0.00  0.00  0.95  0.00  0.00  0.00  0.86  0.00
  YSB1154YSB6556          1.00   0.05  0.00  0.00  0.95  0.00  0.00  0.00  0.02  0.00
  YSB1174YSB1171          1.00   0.03  0.01  0.00  0.96  0.00  0.00  0.00  0.00  0.00
  YSB1171HS02004479       1.00   0.02  0.00  0.00  0.97  0.00  0.00  0.02  0.13  0.00
  HS02004881HS02006253    1.00   0.03  0.00  0.00  0.61  0.01  0.00  0.35  0.38  0.00
  YS02001793JiankangQianchi    1.00   0.00  0.00  0.00  0.26  0.74  0.00  0.00  0.30  0.00
  YS02001757CaochengTiaoxuchi    1.00   0.00  0.11  0.00  0.89  0.00  0.00  0.00  0.00  0.00
  WSF200WS02003060        1.00   0.00  0.05  0.00  0.60  0.34  0.00  0.00  0.53  0.00
  1                       1.00   0.00  0.00  0.00  0.00  1.00  0.00  0.00  0.42  0.00
  2                       1.00   0.90  0.00  0.00  0.00  0.10  0.00  0.00  0.02  0.00
  3                       1.00   0.61  0.00  0.00  0.00  0.39  0.00  0.00  0.17  0.00
  4                       1.00   1.00  0.00  0.00  0.00  0.00  0.00  0.00  0.00  0.00
  
  
  *************************
  Conduit Surcharge Summary
  *************************
  
  ----------------------------------------------------------------------------
                                                           Hours        Hours 
                         --------- Hours Full --------   Above Full   Capacity
  Conduit                Both Ends  Upstream  Dnstream   Normal Flow   Limited
  ----------------------------------------------------------------------------
  WS02006229WS02006228        0.31      0.34      0.31      1.57         0.31
  WS02006256WS02006235        5.07      5.07      6.96      1.87         0.01
  WS02006252WS02006251        0.12      0.12      0.55      0.44         0.01
  WS02006251WS02006249        0.01      0.01      0.01      0.11         0.01
  WS02006249WS02006248        0.01      0.01      0.01      2.07         0.01
  WS02006247WS02006245        0.01      0.01      0.01      3.11         0.01
  WS02006243WS02006242        0.01      0.01      0.05      0.01         0.01
  WS02006242WS02006240        0.01      0.01      0.13      0.51         0.01
  WS02006239WS02006238        0.10      0.10      0.16      0.02         0.01
  WS02006238WS02006235        0.10      0.10      0.23      0.01         0.01
  WS02006235WS02006234        0.01      0.01      0.07      4.95         0.01
  WS02006234WS02006232        0.01      0.01      0.27      0.01         0.01
  WS02006232WS02006231        0.01      0.01      0.27      0.01         0.01
  WS02006231WS02006230        0.01      0.01      0.01      5.28         0.01
  WS02006230WS02006229        0.58      1.27      0.58      5.42         0.58
  WS02006228WS02006109        0.32      0.43      0.32      2.98         0.32
  WS02006111WS02006112        0.01      0.01      1.76      0.01         0.01
  WS02006110WS02006113        0.01      0.01      0.38      0.01         0.01
  WS02006109WS02006110        0.01      0.01      0.43      0.01         0.01
  WS02004404WS02004405        0.01      0.01      0.01      5.27         0.01
  WS02003072WS02003073        0.01      0.01      0.01      2.85         0.01
  YS02001793JiankangQianchi        0.01      0.01      0.83      0.01         0.01
  
  
  ***************
  Pumping Summary
  ***************
  
  ---------------------------------------------------------------------------------------------------------
                                                  Min       Avg       Max     Total     Power    % Time Off
                        Percent   Number of      Flow      Flow      Flow    Volume     Usage    Pump Curve
  Pump                 Utilized   Start-Ups       LPS       LPS       LPS  10^6 ltr     Kw-hr    Low   High
  ---------------------------------------------------------------------------------------------------------
  CC-Pump-1               44.67           6      0.00    111.12    200.00     1.268      5.48    0.0  100.0
  CC-Pump-2               43.10           4      0.00    124.57    200.00     1.400      6.09    0.0  100.0
  JK-Pump-1               65.95           8      0.00     93.22    300.00     1.302     23.40    0.0    0.0
  JK-Pump-2               61.69           9      0.00     74.47    299.93     0.974     18.59    0.0    0.0
  XR-Pump-1               72.34           7      0.00     67.32     95.00     1.339      8.20    0.0    0.0
  XR-Pump-2               61.69           8      0.00     66.30     95.00     1.083      5.59    0.0    0.0
  XR-Pump-3               53.18           8      0.00     61.05     95.00     0.940      5.97    0.0    0.0
  XR-Pump-4               68.08          10      0.00     55.54     95.00     1.112      6.53    0.0    0.0
  

  Analysis begun on:  Thu Jan  6 00:06:59 2022
  Analysis ended on:  Thu Jan  6 00:07:02 2022
  Total elapsed time: 00:00:03