
  EPA STORM WATER MANAGEMENT MODEL - VERSION 5.1 (Build 5.3.0.dev0)
  --------------------------------------------------------------

  WARNING 04: minimum elevation drop used for Conduit WS02004404WS02004405
  WARNING 03: negative offset ignored for Link YS02001904YS02001907
  
  *********************************************************
  NOTE: The summary statistics displayed in this report are
  based on results found at every computational time step,  
  not just on results from each reporting time step.
  *********************************************************
  
  ****************
  Analysis Options
  ****************
  Flow Units ............... LPS
  Process Models:
    Rainfall/Runoff ........ YES
    RDII ................... NO
    Snowmelt ............... NO
    Groundwater ............ NO
    Flow Routing ........... YES
    Ponding Allowed ........ NO
    Water Quality .......... NO
  Infiltration Method ...... HORTON
  Flow Routing Method ...... DYNWAVE
  Surcharge Method ......... EXTRAN
  Starting Date ............ 08/28/2015 08:00:00
  Ending Date .............. 08/28/2015 15:50:00
  Antecedent Dry Days ...... 8.0
  Report Time Step ......... 00:01:00
  Wet Time Step ............ 00:01:00
  Dry Time Step ............ 00:01:00
  Routing Time Step ........ 5.00 sec
  Variable Time Step ....... YES
  Maximum Trials ........... 8
  Number of Threads ........ 4
  Head Tolerance ........... 0.001500 m
  
  
  **************************        Volume         Depth
  Runoff Quantity Continuity     hectare-m            mm
  **************************     ---------       -------
  Total Precipitation ......         2.740         6.000
  Evaporation Loss .........         0.000         0.000
  Infiltration Loss ........         0.689         1.508
  Surface Runoff ...........         1.164         2.549
  Final Storage ............         0.888         1.944
  Continuity Error (%) .....        -0.018
  
  
  **************************        Volume        Volume
  Flow Routing Continuity        hectare-m      10^6 ltr
  **************************     ---------     ---------
  Dry Weather Inflow .......         0.616         6.165
  Wet Weather Inflow .......         1.164        11.637
  Groundwater Inflow .......         0.000         0.000
  RDII Inflow ..............         0.000         0.000
  External Inflow ..........         0.102         1.024
  External Outflow .........         1.346        13.456
  Flooding Loss ............         0.252         2.523
  Evaporation Loss .........         0.000         0.000
  Exfiltration Loss ........         0.000         0.000
  Initial Stored Volume ....         0.076         0.761
  Final Stored Volume ......         0.373         3.727
  Continuity Error (%) .....        -0.615
  
  
  *************************
  Highest Continuity Errors
  *************************
  Node HS02004842 (28.09%)
  Node YS02001884 (22.47%)
  Node YS02001774 (14.00%)
  Node YSB1171 (6.85%)
  Node HS02004901 (5.39%)
  
  
  ***************************
  Time-Step Critical Elements
  ***************************
  Link WS02006252WS02006251 (62.83%)
  Link 3 (24.53%)
  Link WS02006238WS02006235 (5.06%)
  Link WS02006280WS02006229 (2.18%)
  
  
  ********************************
  Highest Flow Instability Indexes
  ********************************
  Link WS02006113WS02006111 (44)
  Link WS02006111WS02006112 (19)
  Link YS02006558YS02006561 (13)
  Link YS02001655YS02001652 (4)
  Link YS02001644YS02001647 (4)
  
  
  *************************
  Routing Time Step Summary
  *************************
  Minimum Time Step           :     0.33 sec
  Average Time Step           :     0.90 sec
  Maximum Time Step           :     5.00 sec
  Percent in Steady State     :    -0.00
  Average Iterations per Step :     2.42
  Percent Not Converging      :     5.04
  
  
  ***************************
  Subcatchment Runoff Summary
  ***************************
  
  ------------------------------------------------------------------------------------------------------------------------------
                            Total      Total      Total      Total     Imperv       Perv      Total       Total     Peak  Runoff
                           Precip      Runon       Evap      Infil     Runoff     Runoff     Runoff      Runoff   Runoff   Coeff
  Subcatchment                 mm         mm         mm         mm         mm         mm         mm    10^6 ltr      LPS
  ------------------------------------------------------------------------------------------------------------------------------
  sub0                       6.00       0.00       0.00       0.42       4.32       0.00       4.32        0.00     1.44   0.719
  sub1                       6.00       0.00       0.00       0.66       4.08       0.00       4.08        0.03     7.61   0.681
  sub2                       6.00       0.00       0.00       2.22       2.87       0.00       2.87        0.03     6.74   0.479
  sub3                       6.00       0.00       0.00       2.22       2.84       0.00       2.84        0.06    13.89   0.473
  sub4                       6.00       0.00       0.00       0.66       3.95       0.00       3.95        0.08    15.61   0.658
  sub5                       6.00       0.00       0.00       0.42       4.27       0.00       4.27        0.05    13.53   0.711
  sub7                       6.00       0.00       0.00       0.54       4.21       0.00       4.21        0.01     4.76   0.701
  sub8                       6.00       0.00       0.00       0.54       4.20       0.00       4.20        0.03     8.41   0.699
  sub9                       6.00       0.00       0.00       0.54       4.19       0.00       4.19        0.02     6.23   0.699
  sub10                      6.00       0.00       0.00       0.48       4.23       0.00       4.23        0.05    13.51   0.705
  sub11                      6.00       0.00       0.00       0.48       4.25       0.00       4.25        0.05    15.82   0.708
  sub12                      6.00       0.00       0.00       0.78       4.03       0.00       4.03        0.04    13.37   0.672
  sub14                      6.00       0.00       0.00       0.54       4.19       0.00       4.19        0.04    12.19   0.699
  sub15                      6.00       0.00       0.00       1.80       3.22       0.00       3.22        0.06    16.54   0.537
  sub16                      6.00       0.00       0.00       1.98       3.10       0.00       3.10        0.03    11.75   0.517
  sub17                      6.00       0.00       0.00       1.92       3.15       0.00       3.15        0.03     9.50   0.524
  sub22                      6.00       0.00       0.00       2.58       2.63       0.00       2.63        0.17    54.10   0.439
  sub23                      6.00       0.00       0.00       2.22       2.91       0.00       2.91        0.14    46.08   0.485
  sub60                      6.00       0.00       0.00       0.72       2.84       0.00       2.84        0.86    79.76   0.473
  sub61                      6.00       0.00       0.00       1.02       3.04       0.00       3.04        0.94   100.03   0.506
  sub62                      6.00       0.00       0.00       0.48       3.26       0.00       3.26        1.00   102.24   0.543
  sub63                      6.00       0.00       0.00       1.74       2.70       0.00       2.70        0.82    93.34   0.451
  sub64                      6.00       0.00       0.00       0.90       2.71       0.00       2.71        0.83    75.76   0.452
  sub65                      6.00       0.00       0.00       0.78       2.75       0.00       2.75        0.85    76.87   0.458
  sub66                      6.00       0.00       0.00       1.74       2.37       0.00       2.37        0.73    69.43   0.395
  sub67                      6.00       0.00       0.00       0.48       3.58       0.00       3.58        1.10   131.19   0.596
  sub68                      6.00       0.00       0.00       0.84       3.23       0.00       3.23        0.99   110.58   0.538
  sub69                      6.00       0.00       0.00       0.90       3.48       0.00       3.48        0.81   109.76   0.581
  sub70                      6.00       3.56       0.00       3.25       4.28       0.00       4.28        0.98    88.75   0.448
  sub71                      6.00       0.00       0.00       0.48       3.11       0.00       3.11        0.74    71.37   0.519
  sub72                      6.00       0.00       0.00       0.42       2.20       0.00       2.20        0.45    33.68   0.367
  sub73                      6.00       4.17       0.00       3.46       4.36       0.00       4.36        1.03    76.27   0.429
  sub74                      6.00       0.00       0.00       4.50       1.05       0.00       1.05        0.42    61.21   0.175
  
  
  ******************
  Node Depth Summary
  ******************
  
  ---------------------------------------------------------------------------------
                                 Average  Maximum  Maximum  Time of Max    Reported
                                   Depth    Depth      HGL   Occurrence   Max Depth
  Node                 Type       Meters   Meters   Meters  days hr:min      Meters
  ---------------------------------------------------------------------------------
  WS02001211           JUNCTION     0.58     0.74     5.58     0  00:51        0.74
  WS02001212           JUNCTION     0.32     0.44     5.50     0  00:51        0.44
  WS02001213           JUNCTION     0.56     0.67     5.43     0  03:02        0.67
  WS02003069           JUNCTION     0.39     0.52     5.10     0  02:44        0.52
  WS02003072           JUNCTION     0.46     0.58     4.95     0  02:44        0.58
  WS02003073           JUNCTION     0.27     0.35     4.42     0  02:45        0.35
  WS02003060           JUNCTION     0.35     0.46     5.39     0  02:43        0.46
  WS02003066           JUNCTION     0.22     0.29     5.84     0  02:49        0.29
  WS02003059           JUNCTION     0.62     0.73     5.42     0  02:42        0.73
  WS02003067           JUNCTION     0.56     0.69     6.01     0  02:49        0.69
  WS02004401           JUNCTION     0.65     0.82     6.82     0  02:47        0.82
  WS02004402           JUNCTION     0.68     0.85     6.81     0  02:47        0.85
  WS02004403           JUNCTION     0.70     0.86     6.79     0  02:47        0.86
  WS02004404           JUNCTION     0.77     0.94     6.79     0  02:47        0.94
  WS02004406           JUNCTION     0.78     0.94     6.77     0  02:47        0.94
  WS02004409           JUNCTION     0.47     0.64     6.41     0  02:48        0.64
  WS02004410           JUNCTION     0.49     0.66     6.38     0  02:48        0.66
  WS02004411           JUNCTION     0.50     0.67     6.35     0  02:49        0.67
  WS02004412           JUNCTION     0.52     0.68     6.32     0  02:49        0.68
  WS02004413           JUNCTION     0.68     0.84     6.31     0  02:49        0.84
  WS02004405           JUNCTION     0.77     0.93     6.78     0  02:47        0.93
  WS02006109           JUNCTION     0.72     0.93     7.54     0  02:43        0.93
  WS02006110           JUNCTION     0.72     0.89     7.48     0  02:44        0.89
  WS02006111           JUNCTION     0.21     0.28     6.98     0  02:40        0.27
  WS02006112           JUNCTION     0.81     1.01     6.89     0  02:46        1.01
  WS02006113           JUNCTION     0.32     0.44     7.33     0  02:39        0.44
  WS02006115           JUNCTION     0.54     0.72     6.86     0  02:46        0.72
  WS02006116           JUNCTION     0.62     0.80     6.84     0  02:46        0.80
  WS02006230           JUNCTION     0.68     0.96     7.71     0  02:43        0.96
  WS02006231           JUNCTION     0.45     0.64     7.76     0  02:43        0.64
  WS02006232           JUNCTION     0.59     0.77     7.81     0  02:43        0.77
  WS02006234           JUNCTION     0.50     0.71     7.87     0  02:43        0.71
  WS02006235           JUNCTION     0.53     0.75     7.91     0  02:43        0.75
  WS02006238           JUNCTION     0.56     0.78     7.92     0  02:43        0.78
  WS02006240           JUNCTION     0.46     0.70     8.00     0  02:43        0.70
  WS02006242           JUNCTION     0.52     0.77     8.04     0  02:42        0.77
  WS02006243           JUNCTION     0.40     0.66     8.08     0  02:42        0.66
  WS02006245           JUNCTION     0.39     0.63     8.11     0  02:42        0.63
  WS02006247           JUNCTION     0.41     0.64     8.14     0  04:59        0.64
  WS02006248           JUNCTION     0.36     0.58     8.17     0  02:40        0.58
  WS02006249           JUNCTION     0.39     0.60     8.20     0  02:40        0.60
  WS02006239           JUNCTION     0.52     0.75     7.96     0  02:43        0.75
  WS02006251           JUNCTION     0.38     0.63     8.30     0  02:40        0.63
  WS02006252           JUNCTION     0.35     0.59     8.83     0  04:49        0.58
  WS02006253           JUNCTION     0.41     0.66     8.31     0  02:40        0.66
  WS02006256           JUNCTION     0.95     1.20     8.14     0  05:40        1.20
  WS02004138           JUNCTION     0.12     0.19     7.44     0  00:50        0.19
  WS02004407           JUNCTION     0.21     0.28     6.60     0  02:48        0.28
  WS02006228           JUNCTION     0.72     0.95     7.61     0  02:43        0.95
  WS02006229           JUNCTION     0.69     0.95     7.64     0  02:43        0.95
  WS02006280           JUNCTION     0.05     0.15     8.42     0  02:18        0.15
  WS02006284           JUNCTION     0.35     0.48     8.88     0  02:18        0.48
  WS02006287           JUNCTION     0.08     0.21     9.17     0  02:17        0.21
  WSF200               JUNCTION     0.21     0.30     5.53     0  02:46        0.30
  HS02004901           JUNCTION     0.11     0.23    10.05     0  02:15        0.23
  HS02004881           JUNCTION     0.01     0.02     9.05     0  02:17        0.02
  HS02004876           JUNCTION     0.03     0.10     9.13     0  02:16        0.10
  HS02004870           JUNCTION     0.01     0.04     9.33     0  02:18        0.04
  HS02004862           JUNCTION     0.01     0.05     9.43     0  02:19        0.05
  HS02004856           JUNCTION     0.07     0.10     9.53     0  02:18        0.10
  HS02004852           JUNCTION     0.01     0.03     9.54     0  02:19        0.03
  HS02004848           JUNCTION     0.01     0.03     9.63     0  02:18        0.03
  HS02004842           JUNCTION     0.33     0.36     9.63     0  02:17        0.36
  HS02004837           JUNCTION     0.03     0.05     9.63     0  02:17        0.05
  HS02004830           JUNCTION     0.04     0.06     9.53     0  02:18        0.06
  HS02004824           JUNCTION     0.02     0.04     9.44     0  02:21        0.04
  HS02004817           JUNCTION     0.42     0.53     9.37     0  02:18        0.53
  HS02004807           JUNCTION     0.11     0.20     9.37     0  02:18        0.20
  HS02004802           JUNCTION     0.15     0.24     9.37     0  02:18        0.24
  HS02004799           JUNCTION     0.10     0.26     9.47     0  02:16        0.26
  HS02004792           JUNCTION     0.02     0.10     9.62     0  02:15        0.10
  HS02004788           JUNCTION     0.02     0.07     9.97     0  02:16        0.07
  HS02004785           JUNCTION     0.03     0.14    10.04     0  02:16        0.14
  HS02004777           JUNCTION     0.13     0.25    10.05     0  02:15        0.25
  HS02004770           JUNCTION     0.10     0.22    10.05     0  02:15        0.22
  HS02004480           JUNCTION     0.06     0.20     9.44     0  02:16        0.20
  HS02004479           JUNCTION     0.10     0.24     9.44     0  02:16        0.24
  HS02004478           JUNCTION     0.05     0.13     9.36     0  02:17        0.13
  YS02001745           JUNCTION     0.09     0.21     7.73     0  04:45        0.21
  YS02001748           JUNCTION     0.43     0.63     7.70     0  04:43        0.61
  YS02001751           JUNCTION     0.61     0.84     7.72     0  04:44        0.81
  YS02001754           JUNCTION     0.86     1.17     7.78     0  05:20        1.15
  YS02001762           JUNCTION     1.06     1.57     7.97     0  04:45        1.39
  YS02001765           JUNCTION     1.01     1.59     8.04     0  04:45        1.37
  YS02001767           JUNCTION     0.97     1.64     8.13     0  04:45        1.37
  YS02001770           JUNCTION     0.97     1.76     8.25     0  04:45        1.41
  YS02001774           JUNCTION     1.04     1.87     8.29     0  04:45        1.50
  YS02001779           JUNCTION     0.79     1.68     8.37     0  04:45        1.26
  YS02001882           JUNCTION     0.29     0.47     7.18     0  02:50        0.47
  YS02001884           JUNCTION     0.38     0.57     7.18     0  02:51        0.57
  YS02001759           JUNCTION     1.09     1.50     7.87     0  04:45        1.39
  YS02001887           JUNCTION     0.46     0.64     7.18     0  02:51        0.64
  YS02001890           JUNCTION     0.49     0.67     7.18     0  02:52        0.67
  YS02001898           JUNCTION     0.26     0.43     7.17     0  02:55        0.43
  YS02001901           JUNCTION     0.38     0.56     7.17     0  02:54        0.56
  YS02001904           JUNCTION     0.36     0.53     7.16     0  02:54        0.53
  YS02001907           JUNCTION     0.69     0.87     7.16     0  02:54        0.87
  YS02001910           JUNCTION     0.47     0.66     7.16     0  02:55        0.66
  YS02001915           JUNCTION     0.28     0.44     7.16     0  02:53        0.44
  YS02001918           JUNCTION     0.08     0.10     7.16     0  03:03        0.10
  YS02001619           JUNCTION     0.57     0.76     7.69     0  04:45        0.76
  YS02001629           JUNCTION     0.92     1.15     7.70     0  04:47        1.15
  YS02001641           JUNCTION     1.03     1.32     7.76     0  04:36        1.30
  YS02001644           JUNCTION     1.03     1.33     7.76     0  04:36        1.31
  YS02001652           JUNCTION     0.87     1.16     7.76     0  05:45        1.12
  YS02001655           JUNCTION     0.64     0.87     7.72     0  04:42        0.87
  YS02001920           JUNCTION     0.18     0.21     7.22     0  03:02        0.21
  YS02001923           JUNCTION     0.06     0.09     7.35     0  03:02        0.09
  YS02001926           JUNCTION     0.14     0.18     7.62     0  03:01        0.18
  YS02001929           JUNCTION     0.07     0.09     7.78     0  03:01        0.09
  YS02001658           JUNCTION     0.37     0.56     7.70     0  04:48        0.55
  YS02001661           JUNCTION     0.18     0.32     7.72     0  04:43        0.30
  YS02001664           JUNCTION     0.07     0.12     8.04     0  02:45        0.12
  YS02001622           JUNCTION     0.59     0.79     7.69     0  04:44        0.79
  YS02001633           JUNCTION     1.01     1.28     7.74     0  04:45        1.25
  YS02001649           JUNCTION     1.07     1.35     7.74     0  04:45        1.33
  YS02001757           JUNCTION     1.19     1.49     7.75     0  04:45        1.47
  YS02001895           JUNCTION     0.25     0.43     7.17     0  02:51        0.43
  YS02001625           JUNCTION     0.87     1.10     7.70     0  04:48        1.08
  YS02163301           JUNCTION     0.95     1.21     7.72     0  04:34        1.19
  YS02163601           JUNCTION     1.07     1.35     7.75     0  04:34        1.32
  YS02164001           JUNCTION     1.01     1.30     7.76     0  04:34        1.27
  YS02001647           JUNCTION     0.86     1.16     7.77     0  04:51        1.14
  YSB1154              JUNCTION     0.24     0.39     9.44     0  02:16        0.39
  YSB6556              JUNCTION     0.13     0.28     9.44     0  02:16        0.27
  YSB1174              JUNCTION     0.19     0.34     9.44     0  02:16        0.34
  YSB1171              JUNCTION     0.39     0.54     9.44     0  02:16        0.54
  YS02006553           JUNCTION     0.69     0.88     7.16     0  02:54        0.88
  YS02006561           JUNCTION     0.14     0.23     6.89     0  02:57        0.23
  YS02006556           JUNCTION     0.66     0.85     7.16     0  02:53        0.85
  YS02006558           JUNCTION     0.71     0.89     7.16     0  02:53        0.89
  YS02001783           JUNCTION     0.26     0.61     6.75     0  03:46        0.60
  YS02001784           JUNCTION     0.30     0.66     6.73     0  03:45        0.62
  YS02001786           JUNCTION     0.26     0.68     6.71     0  03:46        0.64
  YS02001788           JUNCTION     0.21     0.70     6.67     0  03:46        0.69
  YS02001790           JUNCTION     0.30     1.67     7.31     0  03:42        1.00
  YS02001791           JUNCTION     0.29     1.79     7.26     0  04:43        1.15
  YS02001793           JUNCTION     0.42     2.55     7.38     0  03:38        1.77
  WS02004139           JUNCTION     0.52     0.69     5.60     0  00:50        0.69
  WSC                  OUTFALL      0.27     0.35     1.02     0  02:45        0.35
  3                    OUTFALL      0.06     0.20     6.20     0  05:40        0.20
  4                    OUTFALL      0.02     0.10     7.10     0  02:40        0.10
  5                    OUTFALL      0.00     0.00     5.00     0  00:00        0.00
  JK-storage           STORAGE      2.43     5.80     6.60     0  03:44        5.80
  CC-storage           STORAGE      0.44     0.66     7.66     0  04:43        0.66
  XR-storage           STORAGE      7.52     7.72     5.72     0  02:15        7.72
  
  
  *******************
  Node Inflow Summary
  *******************
  
  -------------------------------------------------------------------------------------------------
                                  Maximum  Maximum                  Lateral       Total        Flow
                                  Lateral    Total  Time of Max      Inflow      Inflow     Balance
                                   Inflow   Inflow   Occurrence      Volume      Volume       Error
  Node                 Type           LPS      LPS  days hr:min    10^6 ltr    10^6 ltr     Percent
  -------------------------------------------------------------------------------------------------
  WS02001211           JUNCTION      7.35   375.41     0  00:50       0.207        4.57       0.663
  WS02001212           JUNCTION      0.00   367.47     0  00:51           0        4.54       0.360
  WS02001213           JUNCTION      0.00   365.92     0  00:51           0        4.52       0.424
  WS02003069           JUNCTION      0.32   763.01     0  02:43     0.00902        11.4       0.217
  WS02003072           JUNCTION      0.00   762.83     0  02:44           0        11.4       0.275
  WS02003073           JUNCTION      1.82   764.64     0  02:45      0.0514        11.4       0.301
  WS02003060           JUNCTION     16.53   762.21     0  02:43       0.466        11.4       0.211
  WS02003066           JUNCTION      0.00   498.22     0  02:49           0        6.48       0.063
  WS02003059           JUNCTION      0.00   362.59     0  00:52           0        4.51       0.760
  WS02003067           JUNCTION      0.00   498.19     0  02:49           0        6.49       0.135
  WS02004401           JUNCTION      0.00   500.44     0  02:44           0        6.71       0.307
  WS02004402           JUNCTION      0.00   499.92     0  02:45           0        6.69       0.291
  WS02004403           JUNCTION      0.00   499.41     0  02:45           0        6.67       0.266
  WS02004404           JUNCTION      0.16   499.47     0  02:45     0.00457        6.65       0.202
  WS02004406           JUNCTION      0.00   499.49     0  02:47           0        6.62       0.491
  WS02004409           JUNCTION      0.00   499.37     0  02:48           0        6.58       0.227
  WS02004410           JUNCTION      0.00   498.97     0  02:48           0        6.57       0.257
  WS02004411           JUNCTION      0.00   498.61     0  02:48           0        6.55       0.266
  WS02004412           JUNCTION      0.00   498.42     0  02:49           0        6.53       0.290
  WS02004413           JUNCTION      0.00   498.34     0  02:49           0        6.51       0.434
  WS02004405           JUNCTION      0.04   499.44     0  02:47     0.00107        6.64       0.302
  WS02006109           JUNCTION      1.23   497.89     0  02:43      0.0347         6.8       0.289
  WS02006110           JUNCTION      0.00   497.88     0  02:43           0        6.78       0.299
  WS02006111           JUNCTION      0.00   515.02     0  02:44           0        6.75       0.058
  WS02006112           JUNCTION      9.50   505.53     0  02:40       0.027        6.77       0.424
  WS02006113           JUNCTION      0.00   498.03     0  02:44           0        6.76       0.139
  WS02006115           JUNCTION      0.00   502.12     0  02:44           0        6.74       0.284
  WS02006116           JUNCTION      0.00   501.08     0  02:45           0        6.72       0.264
  WS02006230           JUNCTION     10.28   399.82     0  05:42        0.29        5.88       0.176
  WS02006231           JUNCTION      0.00   391.54     0  05:41           0         5.6       0.199
  WS02006232           JUNCTION      0.00   391.64     0  05:42           0        5.61       0.276
  WS02006234           JUNCTION      0.00   393.40     0  05:41           0        5.62       0.134
  WS02006235           JUNCTION      0.00   394.27     0  05:41           0        5.66       0.180
  WS02006238           JUNCTION      0.00   343.63     0  07:10           0        4.11       0.182
  WS02006240           JUNCTION      0.00   337.76     0  07:10           0         4.1       0.268
  WS02006242           JUNCTION      0.00   335.76     0  06:21           0        4.11       0.335
  WS02006243           JUNCTION      0.00   336.74     0  03:21           0        4.09      -0.181
  WS02006245           JUNCTION      0.00   344.08     0  03:21           0         4.1       0.269
  WS02006247           JUNCTION      0.00   350.71     0  03:21           0        4.11       0.165
  WS02006248           JUNCTION      0.00   356.63     0  03:20           0        4.11       0.074
  WS02006249           JUNCTION      0.00   422.01     0  02:40           0        4.41       0.262
  WS02006239           JUNCTION      0.00   341.63     0  07:10           0         4.1       0.226
  WS02006251           JUNCTION      0.08   422.26     0  02:40     0.00217        4.44       0.196
  WS02006252           JUNCTION      0.00   400.00     0  03:20           0        4.26       0.010
  WS02006253           JUNCTION      1.44    42.33     0  02:17     0.00349        0.18       2.190
  WS02006256           JUNCTION      0.00   599.94     0  03:00           0         3.4       0.073
  WS02004138           JUNCTION      0.00   379.83     0  00:50           0        4.39       0.088
  WS02004407           JUNCTION      0.00   499.40     0  02:47           0        6.59       0.104
  WS02006228           JUNCTION      0.00   496.67     0  02:43           0        6.78       0.208
  WS02006229           JUNCTION      0.00   496.73     0  02:43           0        6.79       0.191
  WS02006280           JUNCTION      0.00   216.66     0  02:18           0       0.924       0.007
  WS02006284           JUNCTION      0.10   216.66     0  02:17      0.0027       0.925       0.116
  WS02006287           JUNCTION      0.00   216.54     0  02:17           0       0.923       0.079
  WSF200               JUNCTION      0.00   498.25     0  02:50           0        6.47       0.057
  HS02004901           JUNCTION     11.75    11.75     0  02:10      0.0324      0.0326       5.696
  HS02004881           JUNCTION      4.76    41.21     0  02:17      0.0142       0.149       0.171
  HS02004876           JUNCTION      7.61    36.76     0  02:17      0.0271       0.135       0.391
  HS02004870           JUNCTION      8.41    29.30     0  02:17      0.0268       0.108       0.099
  HS02004862           JUNCTION      6.94    21.43     0  02:18      0.0324      0.0817       0.207
  HS02004856           JUNCTION      6.23    14.54     0  02:17      0.0202      0.0507       2.920
  HS02004852           JUNCTION      0.00     8.69     0  02:18           0      0.0306       0.166
  HS02004848           JUNCTION     13.89    13.89     0  02:20      0.0639      0.0639       0.069
  HS02004842           JUNCTION      0.00     5.68     0  02:30           0      0.0463      39.060
  HS02004837           JUNCTION     19.86    24.67     0  02:17       0.226       0.259       0.313
  HS02004830           JUNCTION      0.15    24.80     0  02:17     0.00423       0.249       0.497
  HS02004824           JUNCTION     15.66    40.27     0  02:21      0.0837       0.332       0.163
  HS02004817           JUNCTION      0.60    40.87     0  02:21      0.0169       0.348       5.027
  HS02004807           JUNCTION     15.82    55.30     0  02:19      0.0493       0.381       1.122
  HS02004802           JUNCTION      0.00    55.62     0  02:20           0       0.377       1.090
  HS02004799           JUNCTION     12.19   137.51     0  02:15      0.0399       0.481       0.476
  HS02004792           JUNCTION     54.38   125.56     0  02:15       0.174       0.442       0.093
  HS02004788           JUNCTION     18.21    73.11     0  02:15       0.102       0.269       0.146
  HS02004785           JUNCTION      0.15    55.24     0  02:15     0.00423       0.168       0.287
  HS02004777           JUNCTION      0.03    55.54     0  02:13    0.000846       0.169       3.165
  HS02004770           JUNCTION     46.08    56.61     0  02:12       0.139        0.17       1.860
  HS02004480           JUNCTION      0.00   162.19     0  02:16           0       0.562       0.130
  HS02004479           JUNCTION      0.00    25.16     0  02:17           0      0.0929       0.792
  HS02004478           JUNCTION      0.00   216.53     0  02:17           0       0.923       0.067
  YS02001745           JUNCTION     79.77    79.77     0  03:01       0.861       0.863       0.107
  YS02001748           JUNCTION      0.04   117.21     0  05:07     0.00127        0.88       0.578
  YS02001751           JUNCTION      0.01   140.01     0  04:44     0.00031       0.875       1.534
  YS02001754           JUNCTION      0.26   106.15     0  02:48     0.00733       0.853       2.258
  YS02001762           JUNCTION      0.00   110.05     0  02:51           0       0.946       2.224
  YS02001765           JUNCTION      0.00   117.91     0  02:44           0       0.947       2.514
  YS02001767           JUNCTION      0.54   121.17     0  02:47      0.0151       0.965       3.543
  YS02001770           JUNCTION    102.39   120.18     0  02:45           1        1.08       2.545
  YS02001774           JUNCTION      0.00    56.14     0  05:41           0       0.174      16.284
  YS02001779           JUNCTION      0.01    56.98     0  05:41    0.000141      0.0797      16.210
  YS02001882           JUNCTION      0.00     4.18     0  02:09           0     0.00547      44.853
  YS02001884           JUNCTION      0.00    11.62     0  02:06           0      0.0219      28.977
  YS02001759           JUNCTION    100.07   210.88     0  02:47       0.937        1.85       1.244
  YS02001887           JUNCTION    131.64   132.14     0  02:45        1.12        1.13       0.642
  YS02001890           JUNCTION      0.00   132.14     0  02:45           0         1.1       0.720
  YS02001898           JUNCTION      0.00   132.07     0  02:46           0        1.09       0.205
  YS02001901           JUNCTION      0.00   131.65     0  02:45           0        1.09       0.512
  YS02001904           JUNCTION      0.00   131.96     0  02:45           0        1.09       0.476
  YS02001907           JUNCTION      0.00   238.82     0  02:57           0        2.34       0.956
  YS02001910           JUNCTION      0.00   108.45     0  03:01           0        1.26       0.818
  YS02001915           JUNCTION     71.39   107.58     0  03:01       0.736        1.26       0.366
  YS02001918           JUNCTION      0.00    36.54     0  03:02           0       0.527       0.220
  YS02001619           JUNCTION     69.43    69.43     0  02:58       0.726       0.726       0.822
  YS02001629           JUNCTION      0.00    84.66     0  04:33           0       0.679       2.695
  YS02001641           JUNCTION      0.00   154.99     0  03:04           0        1.44       1.447
  YS02001644           JUNCTION     75.80   232.81     0  03:04       0.826        2.23       1.151
  YS02001652           JUNCTION      0.00   124.67     0  02:52           0       0.809       2.263
  YS02001655           JUNCTION      0.15   140.59     0  04:51     0.00434        0.85       1.732
  YS02001920           JUNCTION      2.87    36.56     0  03:02      0.0809       0.529       0.393
  YS02001923           JUNCTION      0.04    33.69     0  03:01     0.00106       0.448       0.069
  YS02001926           JUNCTION      0.05    33.72     0  03:01     0.00147       0.449       0.491
  YS02001929           JUNCTION     33.68    33.68     0  03:01       0.448       0.448       0.067
  YS02001658           JUNCTION      0.00   124.68     0  04:33           0       0.895       0.610
  YS02001661           JUNCTION      0.00    93.34     0  02:45           0       0.865       0.086
  YS02001664           JUNCTION     93.34    93.34     0  02:45       0.818       0.818       0.018
  YS02001622           JUNCTION      0.00    78.41     0  02:44           0       0.729       2.406
  YS02001633           JUNCTION     77.07   163.50     0  03:05        0.85        1.49       2.126
  YS02001649           JUNCTION      0.00   317.36     0  02:59           0        2.96       1.247
  YS02001757           JUNCTION      0.00   579.75     0  02:55           0        5.54       1.689
  YS02001895           JUNCTION      0.00   131.56     0  02:45           0        1.09       0.345
  YS02001625           JUNCTION      0.00    85.02     0  04:34           0       0.717       4.728
  YS02163301           JUNCTION      0.00    93.25     0  03:04           0       0.665       3.494
  YS02163601           JUNCTION      0.11   152.70     0  02:45      0.0031        1.46       2.081
  YS02164001           JUNCTION      0.00   152.31     0  02:53           0        1.44       1.351
  YS02001647           JUNCTION      0.00   234.24     0  03:04           0        2.19       1.046
  YSB1154              JUNCTION     13.53    13.53     0  02:15      0.0483      0.0496       2.997
  YSB6556              JUNCTION      0.00    13.53     0  02:17           0      0.0506       2.526
  YSB1174              JUNCTION     13.37    13.37     0  02:09      0.0352      0.0362       3.679
  YSB1171              JUNCTION      0.00    25.15     0  02:15           0      0.0923       7.354
  YS02006553           JUNCTION      0.00   238.41     0  02:57           0        2.32       0.620
  YS02006561           JUNCTION      0.00   354.47     0  02:56           0        3.29       0.018
  YS02006556           JUNCTION      0.00   238.59     0  02:58           0        2.33       0.448
  YS02006558           JUNCTION    111.46   348.30     0  02:56        1.02        3.32       0.139
  YS02001783           JUNCTION      0.00   348.43     0  02:57           0        3.29       0.048
  YS02001784           JUNCTION      1.06   349.13     0  02:57      0.0299        3.32       0.078
  YS02001786           JUNCTION      0.06   349.10     0  02:57     0.00159        3.32       0.077
  YS02001788           JUNCTION      0.07   349.21     0  02:58       0.002        3.32       0.044
  YS02001790           JUNCTION      0.15   349.38     0  02:58     0.00437        3.32       0.046
  YS02001791           JUNCTION      0.00   354.63     0  04:18           0        3.32       0.019
  YS02001793           JUNCTION      0.00   382.95     0  04:18           0        3.33      -0.007
  WS02004139           JUNCTION      0.32   379.24     0  00:50     0.00905         4.4       0.724
  WSC                  OUTFALL       0.00   764.52     0  02:45           0        11.4       0.000
  3                    OUTFALL       0.00   496.03     0  05:40           0        1.82       0.000
  4                    OUTFALL       0.00   104.72     0  02:40           0       0.284       0.000
  5                    OUTFALL       0.00     0.00     0  00:00           0           0       0.000 ltr
  JK-storage           STORAGE       0.00   465.05     0  03:37           0        3.48      -2.365
  CC-storage           STORAGE       0.00   580.51     0  02:55           0        5.44       0.456
  XR-storage           STORAGE     329.23   329.23     0  02:54        7.08        7.68      -0.002
  
  
  **********************
  Node Surcharge Summary
  **********************
  
  Surcharging occurs when water rises above the top of the highest conduit.
  ---------------------------------------------------------------------
                                               Max. Height   Min. Depth
                                   Hours       Above Crown    Below Rim
  Node                 Type      Surcharged         Meters       Meters
  ---------------------------------------------------------------------
  WS02006109           JUNCTION        1.13          0.106        1.714
  WS02006112           JUNCTION        0.19          0.010        1.670
  WS02006232           JUNCTION        1.30          0.073        1.407
  WS02006235           JUNCTION        0.57          0.038        1.252
  WS02006238           JUNCTION        0.86          0.056        1.374
  WS02006242           JUNCTION        0.69          0.041        0.779
  WS02006239           JUNCTION        0.09          0.010        1.280
  WS02006252           JUNCTION        1.84          0.193        0.907
  WS02006228           JUNCTION        1.01          0.124        2.076
  YS02001754           JUNCTION        0.40          0.125        1.025
  YS02001762           JUNCTION        5.18          0.566        0.584
  YS02001765           JUNCTION        4.71          0.594        0.506
  YS02001767           JUNCTION        4.13          0.643        0.387
  YS02001770           JUNCTION        3.27          0.729        0.191
  YS02001774           JUNCTION        5.12          0.872        0.178
  YS02001779           JUNCTION        0.19          0.680        0.000
  YS02001759           JUNCTION        5.24          0.502        0.708
  YS02001641           JUNCTION        4.96          0.323        0.777
  YS02001644           JUNCTION        5.01          0.333        0.587
  YS02001652           JUNCTION        1.27          0.134        0.996
  YS02001633           JUNCTION        4.33          0.265        0.795
  YS02001649           JUNCTION        5.20          0.350        0.700
  YS02001757           JUNCTION        5.36          0.493        0.717
  YS02001625           JUNCTION        1.83          0.098        0.682
  YS02163301           JUNCTION        3.78          0.206        0.824
  YS02163601           JUNCTION        5.19          0.354        0.726
  YS02164001           JUNCTION        4.54          0.299        0.801
  YS02001647           JUNCTION        1.65          0.157        0.743
  YS02001790           JUNCTION        0.56          0.869        0.288
  YS02001791           JUNCTION        0.67          0.990        0.930
  YS02001793           JUNCTION        1.17          1.549        1.051
  
  
  *********************
  Node Flooding Summary
  *********************
  
  Flooding refers to all water that overflows a node, whether it ponds or not.
  --------------------------------------------------------------------------
                                                             Total   Maximum
                                 Maximum   Time of Max       Flood    Ponded
                        Hours       Rate    Occurrence      Volume     Depth
  Node                 Flooded       LPS   days hr:min    10^6 ltr    Meters
  --------------------------------------------------------------------------
  YS02001779              0.01     16.39      0  04:45       0.000     0.000
  JK-storage              0.29    299.80      0  03:47       0.154     0.000
  XR-storage              4.67    289.05      0  03:50       2.369     0.000
  
  
  **********************
  Storage Volume Summary
  **********************
  
  --------------------------------------------------------------------------------------------------
                         Average     Avg  Evap Exfil       Maximum     Max    Time of Max    Maximum
                          Volume    Pcnt  Pcnt  Pcnt        Volume    Pcnt     Occurrence    Outflow
  Storage Unit           1000 m3    Full  Loss  Loss       1000 m3    Full    days hr:min        LPS
  --------------------------------------------------------------------------------------------------
  JK-storage               0.122      42     0     0         0.291     100       0  03:44     599.94
  CC-storage               1.226       8     0     0         1.837      12       0  04:43     400.00
  XR-storage               0.903      97     0     0         0.926     100       0  02:15     379.83
  
  
  ***********************
  Outfall Loading Summary
  ***********************
  
  -----------------------------------------------------------
                         Flow       Avg       Max       Total
                         Freq      Flow      Flow      Volume
  Outfall Node           Pcnt       LPS       LPS    10^6 ltr
  -----------------------------------------------------------
  WSC                  100.00    472.53    764.52      11.352
  3                     59.78    157.42    496.03       1.820
  4                     27.86     44.26    104.72       0.284
  5                      0.00      0.00      0.00       0.000
  -----------------------------------------------------------
  System                46.91    674.21   1154.72      13.456
  
  
  ********************
  Link Flow Summary
  ********************
  
  -----------------------------------------------------------------------------
                                 Maximum  Time of Max   Maximum    Max/    Max/
                                  |Flow|   Occurrence   |Veloc|    Full    Full
  Link                 Type          LPS  days hr:min     m/sec    Flow   Depth
  -----------------------------------------------------------------------------
  WS02003066WSF200     CONDUIT    498.25     0  02:50      2.73    0.08    0.22
  WS02006287WS02006284 CONDUIT    216.56     0  02:17      1.65    0.10    0.22
  WS02006284WS02006280 CONDUIT    216.66     0  02:18      1.89    0.09    0.20
  WS02006280WS02006229 CONDUIT    216.67     0  02:18      3.04    0.05    0.15
  WS02006229WS02006228 CONDUIT    496.67     0  02:43      0.99    1.65    1.00
  WS02006256WS02006235 CONDUIT    158.12     0  00:23      2.30    1.67    1.00
  WS02006253WS02006251 CONDUIT     45.90     0  02:18      0.50    0.14    0.92
  WS02006252WS02006251 CONDUIT    400.30     0  04:50      3.19    1.47    1.00
  WS02006251WS02006249 CONDUIT    422.01     0  02:40      1.18    1.22    0.88
  WS02006249WS02006248 CONDUIT    356.63     0  03:20      1.16    1.95    0.83
  WS02006248WS02006247 CONDUIT    350.71     0  03:21      1.12    0.76    0.86
  WS02006247WS02006245 CONDUIT    344.08     0  03:21      1.08    2.73    0.90
  WS02006245WS02006243 CONDUIT    336.74     0  03:21      1.08    1.00    0.91
  WS02006243WS02006242 CONDUIT    335.76     0  06:21      0.94    0.72    0.97
  WS02006242WS02006240 CONDUIT    337.76     0  07:10      0.91    1.34    0.99
  WS02006240WS02006239 CONDUIT    341.63     0  07:10      0.95    1.08    1.00
  WS02006239WS02006238 CONDUIT    343.63     0  07:10      0.91    1.10    1.00
  WS02006238WS02006235 CONDUIT    343.47     0  07:10      0.91    0.77    1.00
  WS02006235WS02006234 CONDUIT    393.40     0  05:41      1.03    4.15    1.00
  WS02006234WS02006232 CONDUIT    391.64     0  05:42      1.02    0.79    1.00
  WS02006232WS02006231 CONDUIT    391.54     0  05:41      1.07    0.82    0.95
  WS02006231WS02006230 CONDUIT    389.54     0  05:42      1.33    5.91    0.87
  WS02006230WS02006229 CONDUIT    399.16     0  05:42      1.04    8.88    1.00
  WS02006228WS02006109 CONDUIT    496.66     0  02:43      0.99    2.17    1.00
  WS02006116WS02004401 CONDUIT    500.44     0  02:44      0.77    0.69    0.81
  WS02006115WS02006116 CONDUIT    501.08     0  02:45      0.82    0.64    0.73
  WS02006113WS02006111 CONDUIT    515.02     0  02:44      2.39    0.62    0.44
  WS02006112WS02006115 CONDUIT    502.12     0  02:44      0.71    0.30    0.85
  WS02006111WS02006112 CONDUIT    501.18     0  02:40      1.41    0.24    0.67
  WS02006110WS02006113 CONDUIT    498.03     0  02:44      1.20    0.45    0.77
  WS02006109WS02006110 CONDUIT    497.88     0  02:43      0.99    0.96    0.99
  WS02004411WS02004412 CONDUIT    498.42     0  02:49      0.89    0.71    0.67
  WS02004401WS02004402 CONDUIT    499.92     0  02:45      0.80    0.60    0.83
  WS02004413WS02003067 CONDUIT    498.19     0  02:49      1.07    0.21    0.58
  WS02004412WS02004413 CONDUIT    498.34     0  02:49      0.78    0.33    0.76
  WS02004410WS02004411 CONDUIT    498.61     0  02:48      0.91    0.68    0.66
  WS02004409WS02004410 CONDUIT    498.97     0  02:48      0.93    0.65    0.65
  WS02004407WS02004409 CONDUIT    499.37     0  02:48      1.42    0.18    0.46
  WS02004406WS02004407 CONDUIT    499.40     0  02:47      1.00    0.22    0.61
  WS02004405WS02004406 CONDUIT    499.49     0  02:47      0.65    0.99    0.93
  WS02004404WS02004405 CONDUIT    499.40     0  02:47      0.88    4.89    0.94
  WS02004403WS02004404 CONDUIT    499.31     0  02:45      0.75    0.36    0.90
  WS02004402WS02004403 CONDUIT    499.41     0  02:45      0.79    0.72    0.86
  WS02004139WS02001211 CONDUIT    368.06     0  00:50      0.69    0.47    0.55
  WS02004138WS02004139 CONDUIT    378.92     0  00:50      2.95    0.08    0.41
  WS02003067WS02003066 CONDUIT    498.22     0  02:49      1.16    0.16    0.41
  WS02001213WS02003059 CONDUIT    362.59     0  00:52      0.67    0.60    0.69
  WS02001212WS02001213 CONDUIT    365.92     0  00:51      1.29    0.56    0.39
  WS02001211WS02001212 CONDUIT    367.47     0  00:51      0.76    0.28    0.59
  WS02003072WS02003073 CONDUIT    762.82     0  02:45      1.61    1.65    0.44
  WS02003069WS02003072 CONDUIT    762.83     0  02:44      1.52    0.37    0.46
  WS02003060WS02003069 CONDUIT    762.69     0  02:43      1.77    0.30    0.41
  WS02003059WS02003060 CONDUIT    358.01     0  00:52      0.91    0.23    0.60
  HS02004901HS02004770 CONDUIT     10.92     0  02:14      0.05    0.04    0.33
  HS02004876HS02004881 CONDUIT     36.84     0  02:17      0.59    0.39    0.09
  HS02004870HS02004876 CONDUIT     29.28     0  02:18      0.41    0.02    0.10
  HS02004842HS02004848 CONDUIT      5.68     0  02:30      0.03    0.00    0.28
  HS02004837HS02004842 CONDUIT      5.87     0  02:31      0.42    0.00    0.29
  HS02004830HS02004837 CONDUIT     24.65     0  02:17      0.45    0.02    0.08
  HS02004824HS02004830 CONDUIT     24.80     0  02:18      0.49    0.03    0.07
  HS02004817HS02004824 CONDUIT     40.27     0  02:21      0.17    0.02    0.40
  HS02004770HS02004777 CONDUIT     55.51     0  02:13      0.23    0.10    0.34
  HS02004799HS02004480 CONDUIT    137.28     0  02:16      0.61    0.17    0.32
  HS02004792HS02004799 CONDUIT    125.49     0  02:15      0.70    0.08    0.26
  HS02004788HS02004792 CONDUIT     73.05     0  02:16      0.85    0.05    0.12
  HS02004785HS02004788 CONDUIT     55.14     0  02:16      0.53    0.42    0.15
  HS02004777HS02004785 CONDUIT     55.09     0  02:15      0.28    0.07    0.28
  HS02004480HS02004478 CONDUIT    162.11     0  02:16      0.98    0.68    0.24
  HS02004479HS02004480 CONDUIT     25.40     0  02:18      0.15    0.02    0.31
  HS02004862HS02004870 CONDUIT     21.39     0  02:19      0.48    0.02    0.06
  HS02004848HS02004852 CONDUIT      8.69     0  02:18      0.32    0.01    0.04
  HS02004856HS02004862 CONDUIT     14.51     0  02:18      0.35    0.01    0.06
  HS02004852HS02004856 CONDUIT      8.65     0  02:19      0.13    0.01    0.09
  HS02004802HS02004478 CONDUIT     56.03     0  02:21      0.31    0.05    0.26
  HS02004478WS02006287 CONDUIT    216.54     0  02:17      1.35    0.06    0.18
  HS02004817HS02004807 CONDUIT     41.45     0  02:22      0.12    0.02    0.52
  HS02004807HS02004802 CONDUIT     55.62     0  02:20      0.26    0.11    0.31
  YS02001759YS02001757 CONDUIT    212.45     0  02:47      0.27    0.15    1.00
  YS02001762YS02001759 CONDUIT    110.86     0  02:47      0.18    0.13    1.00
  YS02001765YS02001762 CONDUIT    110.05     0  02:51      0.23    0.10    1.00
  YS02001770YS02001767 CONDUIT    120.63     0  02:47      0.30    0.48    1.00
  YS02001774YS02001770 CONDUIT     56.14     0  05:41      0.14    0.04    1.00
  YS02001779YS02001774 CONDUIT     56.97     0  05:41      0.07    0.03    1.00
  YS02001649YS02001757 CONDUIT    318.95     0  02:59      0.41    0.19    1.00
  YS02001767YS02001765 CONDUIT    117.91     0  02:44      0.25    0.15    1.00
  YS02006561YS02001783 CONDUIT    348.43     0  02:57      1.84    0.18    0.50
  YS02001783YS02001784 CONDUIT    348.07     0  02:57      1.28    0.48    0.76
  YS02001784YS02001785 CONDUIT    349.05     0  02:57      1.36    0.81    0.82
  YS02001788YS02001790 CONDUIT    349.23     0  02:58      1.93    0.26    0.94
  YS02001790YS02001791 CONDUIT    354.63     0  04:18      2.20    0.39    1.00
  YS02001791YS02001793 CONDUIT    382.95     0  04:18      4.53    0.16    1.00
  YS02001910YS02001907 CONDUIT    109.26     0  02:57      0.50    0.06    0.76
  YS02001786YS02001788 CONDUIT    349.14     0  02:58      1.80    0.67    0.85
  YS02001915YS02001910 CONDUIT    108.45     0  03:01      0.45    0.05    0.55
  YS02001918YS02001915 CONDUIT     36.52     0  03:03      0.44    0.02    0.27
  YS02001923YS02001920 CONDUIT     33.69     0  03:02      0.47    0.02    0.15
  YS02001926YS02001923 CONDUIT     33.65     0  03:01      0.51    0.05    0.14
  YS02001929YS02001926 CONDUIT     33.67     0  03:01      0.54    0.02    0.13
  YS02001920YS02001918 CONDUIT     36.54     0  03:02      0.48    0.04    0.15
  YS02001629YS02163301 CONDUIT     93.25     0  03:04      0.12    0.11    1.00
  YS02001619YS02001622 CONDUIT     78.41     0  02:44      0.66    0.12    0.77
  YS02001622YS02001625 CONDUIT     85.02     0  04:34      0.25    0.05    0.89
  YS02001625YS02001629 CONDUIT     84.66     0  04:33      0.25    0.04    0.89
  YS02163301YS02001633 CONDUIT     88.87     0  03:05      0.11    0.08    1.00
  YS02163601YS02164001 CONDUIT    152.31     0  02:53      0.19    0.13    1.00
  YS02164001YS02001641 CONDUIT    154.99     0  03:04      0.20    0.21    1.00
  YS02001641YS02001644 CONDUIT    158.90     0  03:04      0.20    0.51    1.00
  YS02001647YS02001649 CONDUIT    237.08     0  02:52      0.31    0.13    1.00
  YS02006553YS02006556 CONDUIT    238.59     0  02:58      0.34    0.20    0.84
  YS02006556YS02006558 CONDUIT    238.58     0  02:58      0.33    0.19    0.87
  YSB6556YSB1171       CONDUIT     13.75     0  02:19      0.06    0.01    0.58
  YS02001907YS02006553 CONDUIT    238.41     0  02:57      0.28    0.28    0.96
  YS02006558YS02006561 CONDUIT    354.47     0  02:56      2.41    0.78    0.52
  YS02001633YS02163601 CONDUIT    152.59     0  02:45      0.19    0.16    1.00
  YS02001644YS02001647 CONDUIT    234.24     0  03:04      0.30    0.14    1.00
  YS02001745YS02001748 CONDUIT    114.25     0  04:45      1.42    0.04    0.36
  YS02001748YS02001751 CONDUIT    140.00     0  04:44      1.10    0.07    0.70
  YS02001751YS02001754 CONDUIT    105.89     0  02:48      0.97    0.05    0.92
  YS02001754YS02001757 CONDUIT     96.12     0  02:50      0.33    0.04    1.00
  YS02001882YS02001884 CONDUIT      4.18     0  02:09      0.06    0.00    0.49
  YS02001884YS02001887 CONDUIT     11.62     0  02:06      0.06    0.02    0.58
  YS02001890YS02001895 CONDUIT    131.56     0  02:45      0.30    0.06    0.55
  YS02001895YS02001898 CONDUIT    132.07     0  02:46      0.48    0.23    0.41
  YS02001898YS02001901 CONDUIT    131.65     0  02:45      0.34    0.08    0.49
  YS02001901YS02001904 CONDUIT    131.96     0  02:45      0.30    0.20    0.54
  YS02001904YS02001907 CONDUIT    131.53     0  02:45      0.22    0.05    0.70
  YS02001887YS02001890 CONDUIT    132.14     0  02:45      0.25    0.23    0.63
  YS02001652YS02001649 CONDUIT    127.11     0  02:37      0.32    0.06    1.00
  YS02001655YS02001652 CONDUIT    124.67     0  02:52      1.04    0.06    0.94
  YS02001658YS02001655 CONDUIT    140.43     0  04:51      1.27    0.06    0.71
  YS02001661YS02001658 CONDUIT    124.68     0  04:33      1.48    0.05    0.38
  YS02001664YS02001661 CONDUIT     93.34     0  02:45      1.16    0.03    0.19
  YSB1154YSB6556       CONDUIT     13.53     0  02:17      0.19    0.02    0.47
  YSB1174YSB1171       CONDUIT     12.43     0  02:10      0.06    0.02    0.59
  YSB1171HS02004479    CONDUIT     25.16     0  02:17      0.54    0.02    0.46
  HS02004881HS02006253 CONDUIT     41.21     0  02:17      1.70    0.01    0.24
  YS02001793JiankangQianchi CONDUIT    465.05     0  03:37     12.96    0.04    1.00
  YS02001757CaochengTiaoxuchi CONDUIT    580.51     0  02:55      1.27    0.25    0.83
  WSF200WS02003060     CONDUIT    498.95     0  02:50      1.89    0.11    0.31
  1                    CONDUIT    764.52     0  02:45      3.09    0.27    0.35
  2                    CONDUIT    104.72     0  02:40      4.91    0.25    0.34
  3                    CONDUIT    496.03     0  05:40      9.79    0.79    0.68
  4                    CONDUIT      0.00     0  00:00      0.00    0.00    0.00
  CC-Pump-1            PUMP       200.00     0  02:30              1.00
  CC-Pump-2            PUMP       200.00     0  02:40              1.00
  JK-Pump-1            PUMP       300.00     0  00:30              1.00
  JK-Pump-2            PUMP       300.00     0  02:50              1.00
  XR-Pump-1            PUMP        95.00     0  05:00              1.00
  XR-Pump-2            PUMP        95.00     0  00:00              1.00
  XR-Pump-3            PUMP        95.00     0  00:40              1.00
  XR-Pump-4            PUMP        95.00     0  00:00              1.00
  
  
  ***************************
  Flow Classification Summary
  ***************************
  
  -------------------------------------------------------------------------------------
                      Adjusted    ---------- Fraction of Time in Flow Class ---------- 
                       /Actual         Up    Down  Sub   Sup   Up    Down  Norm  Inlet 
  Conduit               Length    Dry  Dry   Dry   Crit  Crit  Crit  Crit  Ltd   Ctrl  
  -------------------------------------------------------------------------------------
  WS02003066WSF200        1.00   0.05  0.01  0.00  0.00  0.94  0.00  0.00  0.72  0.00
  WS02006287WS02006284    1.00   0.04  0.02  0.00  0.70  0.25  0.00  0.00  0.77  0.00
  WS02006284WS02006280    1.00   0.04  0.00  0.00  0.00  0.00  0.00  0.96  0.00  0.00
  WS02006280WS02006229    1.00   0.04  0.00  0.00  0.00  0.00  0.00  0.96  0.00  0.00
  WS02006229WS02006228    1.00   0.00  0.00  0.00  1.00  0.00  0.00  0.00  0.00  0.00
  WS02006256WS02006235    1.00   0.01  0.00  0.00  0.99  0.00  0.00  0.00  0.00  0.00
  WS02006253WS02006251    1.00   0.01  0.03  0.00  0.96  0.00  0.00  0.00  0.00  0.00
  WS02006252WS02006251    1.00   0.08  0.00  0.00  0.00  0.00  0.92  0.00  0.00  0.00
  WS02006251WS02006249    1.00   0.00  0.00  0.00  1.00  0.00  0.00  0.00  0.28  0.00
  WS02006249WS02006248    1.00   0.00  0.00  0.00  0.88  0.00  0.12  0.00  0.00  0.00
  WS02006248WS02006247    1.00   0.00  0.00  0.00  0.97  0.00  0.00  0.03  0.18  0.00
  WS02006247WS02006245    1.00   0.00  0.00  0.00  0.97  0.00  0.00  0.02  0.00  0.00
  WS02006245WS02006243    1.00   0.01  0.00  0.00  0.94  0.00  0.00  0.05  0.01  0.00
  WS02006243WS02006242    1.00   0.01  0.00  0.00  0.99  0.00  0.00  0.00  0.22  0.00
  WS02006242WS02006240    1.00   0.01  0.00  0.00  0.99  0.00  0.00  0.00  0.00  0.00
  WS02006240WS02006239    1.00   0.01  0.00  0.00  0.96  0.00  0.00  0.04  0.01  0.00
  WS02006239WS02006238    1.00   0.01  0.00  0.00  0.99  0.00  0.00  0.00  0.02  0.00
  WS02006238WS02006235    1.00   0.01  0.00  0.00  0.99  0.00  0.00  0.00  0.00  0.00
  WS02006235WS02006234    1.00   0.01  0.00  0.00  0.96  0.00  0.04  0.00  0.00  0.00
  WS02006234WS02006232    1.00   0.01  0.00  0.00  0.99  0.00  0.00  0.00  0.11  0.00
  WS02006232WS02006231    1.00   0.01  0.00  0.00  0.99  0.00  0.00  0.00  0.00  0.00
  WS02006231WS02006230    1.00   0.01  0.00  0.00  0.46  0.00  0.53  0.00  0.00  0.00
  WS02006230WS02006229    1.00   0.00  0.00  0.00  0.99  0.00  0.00  0.01  0.00  0.00
  WS02006228WS02006109    1.00   0.00  0.00  0.00  1.00  0.00  0.00  0.00  0.00  0.00
  WS02006116WS02004401    1.00   0.03  0.00  0.00  0.97  0.00  0.00  0.00  0.00  0.00
  WS02006115WS02006116    1.00   0.03  0.00  0.00  0.97  0.00  0.00  0.00  0.00  0.00
  WS02006113WS02006111    1.00   0.02  0.00  0.00  0.00  0.98  0.00  0.00  0.12  0.00
  WS02006112WS02006115    1.00   0.02  0.01  0.00  0.97  0.00  0.00  0.00  0.00  0.00
  WS02006111WS02006112    1.00   0.02  0.00  0.00  0.97  0.00  0.00  0.01  0.94  0.00
  WS02006110WS02006113    1.00   0.00  0.02  0.00  0.98  0.00  0.00  0.00  0.00  0.00
  WS02006109WS02006110    1.00   0.00  0.00  0.00  1.00  0.00  0.00  0.00  0.00  0.00
  WS02004411WS02004412    1.00   0.04  0.00  0.00  0.96  0.00  0.00  0.00  0.00  0.00
  WS02004401WS02004402    1.00   0.03  0.00  0.00  0.97  0.00  0.00  0.00  0.00  0.00
  WS02004413WS02003067    1.00   0.04  0.01  0.00  0.00  0.00  0.94  0.00  0.00  0.00
  WS02004412WS02004413    1.00   0.04  0.00  0.00  0.96  0.00  0.00  0.00  0.03  0.00
  WS02004410WS02004411    1.00   0.04  0.00  0.00  0.96  0.00  0.00  0.00  0.04  0.00
  WS02004409WS02004410    1.00   0.04  0.00  0.00  0.96  0.00  0.00  0.00  0.04  0.00
  WS02004407WS02004409    1.00   0.04  0.00  0.00  0.96  0.00  0.00  0.00  0.86  0.00
  WS02004406WS02004407    1.00   0.00  0.04  0.00  0.96  0.00  0.00  0.00  0.00  0.00
  WS02004405WS02004406    1.00   0.00  0.00  0.00  1.00  0.00  0.00  0.00  0.04  0.00
  WS02004404WS02004405    1.00   0.00  0.00  0.00  1.00  0.00  0.00  0.00  0.00  0.00
  WS02004403WS02004404    1.00   0.00  0.03  0.00  0.97  0.00  0.00  0.00  0.01  0.00
  WS02004402WS02004403    1.00   0.03  0.00  0.00  0.97  0.00  0.00  0.00  0.00  0.00
  WS02004139WS02001211    1.00   0.00  0.00  0.00  1.00  0.00  0.00  0.00  0.00  0.00
  WS02004138WS02004139    1.00   0.00  0.00  0.00  1.00  0.00  0.00  0.00  1.00  0.00
  WS02003067WS02003066    1.00   0.06  0.00  0.00  0.94  0.00  0.00  0.00  0.00  0.00
  WS02001213WS02003059    1.00   0.00  0.00  0.00  1.00  0.00  0.00  0.00  0.00  0.00
  WS02001212WS02001213    1.00   0.00  0.00  0.00  0.74  0.00  0.26  0.00  0.00  0.00
  WS02001211WS02001212    1.00   0.00  0.00  0.00  1.00  0.00  0.00  0.00  0.00  0.00
  WS02003072WS02003073    1.00   0.00  0.00  0.00  0.00  0.00  0.00  1.00  0.00  0.00
  WS02003069WS02003072    1.00   0.00  0.00  0.00  1.00  0.00  0.00  0.00  0.35  0.00
  WS02003060WS02003069    1.00   0.00  0.00  0.00  0.99  0.01  0.00  0.00  0.20  0.00
  WS02003059WS02003060    1.00   0.00  0.00  0.00  1.00  0.00  0.00  0.00  0.01  0.00
  HS02004901HS02004770    1.00   0.04  0.00  0.00  0.96  0.00  0.00  0.00  0.02  0.00
  HS02004876HS02004881    1.00   0.00  0.00  0.00  1.00  0.00  0.00  0.00  0.00  0.00
  HS02004870HS02004876    1.00   0.00  0.00  0.00  1.00  0.00  0.00  0.00  0.95  0.00
  HS02004842HS02004848    1.00   0.00  0.04  0.00  0.96  0.00  0.00  0.00  0.68  0.00
  HS02004837HS02004842    1.00   0.00  0.00  0.00  1.00  0.00  0.00  0.00  0.11  0.00
  HS02004830HS02004837    1.00   0.00  0.00  0.00  1.00  0.00  0.00  0.00  0.99  0.00
  HS02004824HS02004830    1.00   0.00  0.00  0.00  1.00  0.00  0.00  0.00  0.00  0.00
  HS02004817HS02004824    1.00   0.00  0.00  0.00  1.00  0.00  0.00  0.00  1.00  0.00
  HS02004770HS02004777    1.00   0.00  0.04  0.00  0.96  0.00  0.00  0.00  0.07  0.00
  HS02004799HS02004480    1.00   0.00  0.01  0.00  0.95  0.00  0.05  0.00  0.00  0.00
  HS02004792HS02004799    1.00   0.00  0.00  0.00  1.00  0.00  0.00  0.00  0.98  0.00
  HS02004788HS02004792    1.00   0.00  0.00  0.00  1.00  0.00  0.00  0.00  0.98  0.00
  HS02004785HS02004788    1.00   0.00  0.00  0.00  1.00  0.00  0.00  0.00  0.00  0.00
  HS02004777HS02004785    1.00   0.00  0.00  0.00  1.00  0.00  0.00  0.00  0.20  0.00
  HS02004480HS02004478    1.00   0.05  0.00  0.00  0.73  0.00  0.00  0.22  0.00  0.00
  HS02004479HS02004480    1.00   0.01  0.00  0.00  0.99  0.00  0.00  0.00  0.15  0.00
  HS02004862HS02004870    1.00   0.00  0.00  0.00  1.00  0.00  0.00  0.00  0.06  0.00
  HS02004848HS02004852    1.00   0.04  0.00  0.00  0.96  0.00  0.00  0.00  0.71  0.00
  HS02004856HS02004862    1.00   0.00  0.07  0.00  0.93  0.00  0.00  0.00  0.75  0.00
  HS02004852HS02004856    1.00   0.04  0.01  0.00  0.95  0.00  0.00  0.00  0.83  0.00
  HS02004802HS02004478    1.00   0.04  0.00  0.00  0.95  0.00  0.00  0.00  0.01  0.00
  HS02004478WS02006287    1.00   0.05  0.00  0.00  0.88  0.07  0.00  0.00  0.77  0.00
  HS02004817HS02004807    1.00   0.00  0.04  0.00  0.96  0.00  0.00  0.00  0.00  0.00
  HS02004807HS02004802    1.00   0.04  0.00  0.00  0.95  0.00  0.00  0.00  0.01  0.00
  YS02001759YS02001757    1.00   0.00  0.00  0.00  1.00  0.00  0.00  0.00  0.17  0.00
  YS02001762YS02001759    1.00   0.00  0.00  0.00  1.00  0.00  0.00  0.00  0.04  0.00
  YS02001765YS02001762    1.00   0.00  0.00  0.00  1.00  0.00  0.00  0.00  0.22  0.00
  YS02001770YS02001767    1.00   0.00  0.00  0.00  1.00  0.00  0.00  0.00  0.00  0.00
  YS02001774YS02001770    1.00   0.00  0.05  0.00  0.95  0.00  0.00  0.00  0.07  0.00
  YS02001779YS02001774    1.00   0.00  0.00  0.00  1.00  0.00  0.00  0.00  0.26  0.00
  YS02001649YS02001757    1.00   0.00  0.00  0.00  1.00  0.00  0.00  0.00  0.19  0.00
  YS02001767YS02001765    1.00   0.00  0.00  0.00  1.00  0.00  0.00  0.00  0.01  0.00
  YS02006561YS02001783    1.00   0.07  0.00  0.00  0.09  0.84  0.00  0.00  0.73  0.00
  YS02001783YS02001784    1.00   0.00  0.07  0.00  0.93  0.00  0.00  0.00  0.00  0.00
  YS02001784YS02001785    1.00   0.00  0.00  0.00  1.00  0.00  0.00  0.00  0.25  0.00
  YS02001788YS02001790    1.00   0.00  0.00  0.00  0.26  0.74  0.00  0.00  0.69  0.00
  YS02001790YS02001791    1.00   0.00  0.00  0.00  0.22  0.78  0.00  0.00  0.42  0.00
  YS02001791YS02001793    1.00   0.00  0.00  0.00  0.29  0.71  0.00  0.00  0.05  0.00
  YS02001910YS02001907    1.00   0.00  0.00  0.00  0.99  0.00  0.00  0.00  0.13  0.00
  YS02001786YS02001788    1.00   0.00  0.00  0.00  0.21  0.79  0.00  0.00  0.00  0.00
  YS02001915YS02001910    1.00   0.00  0.00  0.00  1.00  0.00  0.00  0.00  0.24  0.00
  YS02001918YS02001915    1.00   0.00  0.00  0.00  1.00  0.00  0.00  0.00  0.82  0.00
  YS02001923YS02001920    1.00   0.00  0.00  0.00  1.00  0.00  0.00  0.00  1.00  0.00
  YS02001926YS02001923    1.00   0.00  0.03  0.00  0.00  0.00  0.97  0.00  0.00  0.00
  YS02001929YS02001926    1.00   0.00  0.04  0.00  0.96  0.00  0.00  0.00  0.87  0.00
  YS02001920YS02001918    1.00   0.00  0.00  0.00  1.00  0.00  0.00  0.00  0.00  0.00
  YS02001629YS02163301    1.00   0.06  0.00  0.00  0.94  0.00  0.00  0.00  0.00  0.00
  YS02001619YS02001622    1.00   0.04  0.00  0.00  0.96  0.00  0.00  0.00  0.00  0.00
  YS02001622YS02001625    1.00   0.04  0.00  0.00  0.96  0.00  0.00  0.00  0.13  0.00
  YS02001625YS02001629    1.00   0.04  0.03  0.00  0.92  0.00  0.01  0.00  0.00  0.00
  YS02163301YS02001633    1.00   0.00  0.06  0.00  0.94  0.00  0.00  0.00  0.00  0.00
  YS02163601YS02164001    1.00   0.00  0.03  0.00  0.97  0.00  0.00  0.00  0.00  0.00
  YS02164001YS02001641    1.00   0.00  0.03  0.00  0.97  0.00  0.00  0.00  0.07  0.00
  YS02001641YS02001644    1.00   0.00  0.00  0.00  1.00  0.00  0.00  0.00  0.00  0.00
  YS02001647YS02001649    1.00   0.00  0.07  0.00  0.93  0.00  0.00  0.00  0.01  0.00
  YS02006553YS02006556    1.00   0.00  0.00  0.00  1.00  0.00  0.00  0.00  0.03  0.00
  YS02006556YS02006558    1.00   0.00  0.00  0.00  1.00  0.00  0.00  0.00  0.00  0.00
  YSB6556YSB1171          1.00   0.01  0.03  0.00  0.96  0.00  0.00  0.00  0.00  0.00
  YS02001907YS02006553    1.00   0.00  0.00  0.00  1.00  0.00  0.00  0.00  0.00  0.00
  YS02006558YS02006561    1.00   0.07  0.00  0.00  0.00  0.93  0.00  0.00  0.70  0.00
  YS02001633YS02163601    1.00   0.00  0.00  0.00  1.00  0.00  0.00  0.00  0.19  0.00
  YS02001644YS02001647    1.00   0.00  0.07  0.00  0.93  0.00  0.00  0.00  0.00  0.00
  YS02001745YS02001748    1.00   0.00  0.00  0.00  0.87  0.01  0.00  0.11  0.45  0.00
  YS02001748YS02001751    1.00   0.00  0.00  0.00  0.98  0.02  0.00  0.00  0.24  0.00
  YS02001751YS02001754    1.00   0.00  0.00  0.00  0.93  0.00  0.00  0.07  0.02  0.00
  YS02001754YS02001757    1.00   0.00  0.00  0.00  1.00  0.00  0.00  0.00  0.26  0.00
  YS02001882YS02001884    1.00   0.05  0.00  0.00  0.94  0.00  0.00  0.00  0.00  0.00
  YS02001884YS02001887    1.00   0.02  0.01  0.00  0.96  0.00  0.00  0.00  0.00  0.00
  YS02001890YS02001895    1.00   0.00  0.06  0.00  0.94  0.00  0.00  0.00  0.00  0.00
  YS02001895YS02001898    1.00   0.06  0.00  0.00  0.93  0.00  0.01  0.00  0.00  0.00
  YS02001898YS02001901    1.00   0.06  0.00  0.00  0.94  0.00  0.00  0.00  0.02  0.00
  YS02001901YS02001904    1.00   0.06  0.00  0.00  0.94  0.00  0.00  0.00  0.00  0.00
  YS02001904YS02001907    1.00   0.00  0.06  0.00  0.94  0.00  0.00  0.00  0.00  0.00
  YS02001887YS02001890    1.00   0.00  0.00  0.00  0.99  0.00  0.01  0.00  0.00  0.00
  YS02001652YS02001649    1.00   0.00  0.00  0.00  1.00  0.00  0.00  0.00  0.25  0.00
  YS02001655YS02001652    1.00   0.00  0.00  0.00  0.93  0.00  0.00  0.07  0.02  0.00
  YS02001658YS02001655    1.00   0.00  0.05  0.00  0.92  0.03  0.00  0.00  0.11  0.00
  YS02001661YS02001658    1.00   0.05  0.00  0.00  0.87  0.08  0.00  0.00  0.39  0.00
  YS02001664YS02001661    1.00   0.04  0.00  0.00  0.74  0.21  0.00  0.00  0.86  0.00
  YSB1154YSB6556          1.00   0.04  0.00  0.00  0.96  0.00  0.00  0.00  0.02  0.00
  YSB1174YSB1171          1.00   0.01  0.02  0.00  0.96  0.00  0.00  0.00  0.00  0.00
  YSB1171HS02004479       1.00   0.01  0.00  0.00  0.98  0.00  0.00  0.01  0.13  0.00
  HS02004881HS02006253    1.00   0.01  0.00  0.00  0.73  0.02  0.00  0.25  0.55  0.00
  YS02001793JiankangQianchi    1.00   0.00  0.00  0.00  0.63  0.37  0.00  0.00  0.35  0.00
  YS02001757CaochengTiaoxuchi    1.00   0.00  0.08  0.00  0.92  0.00  0.00  0.00  0.00  0.00
  WSF200WS02003060        1.00   0.00  0.05  0.00  0.41  0.54  0.00  0.00  0.30  0.00
  1                       1.00   0.00  0.00  0.00  0.00  1.00  0.00  0.00  0.33  0.00
  2                       1.00   0.72  0.00  0.00  0.00  0.28  0.00  0.00  0.08  0.00
  3                       1.00   0.40  0.00  0.00  0.00  0.60  0.00  0.00  0.13  0.00
  4                       1.00   1.00  0.00  0.00  0.00  0.00  0.00  0.00  0.00  0.00
  
  
  *************************
  Conduit Surcharge Summary
  *************************
  
  ----------------------------------------------------------------------------
                                                           Hours        Hours 
                         --------- Hours Full --------   Above Full   Capacity
  Conduit                Both Ends  Upstream  Dnstream   Normal Flow   Limited
  ----------------------------------------------------------------------------
  WS02006229WS02006228        1.01      1.26      1.01      3.48         1.01
  WS02006256WS02006235        5.66      5.66      6.83      2.08         0.01
  WS02006252WS02006251        0.98      0.98      1.84      1.62         0.01
  WS02006251WS02006249        0.01      0.01      0.01      1.00         0.01
  WS02006249WS02006248        0.01      0.01      0.01      3.93         0.01
  WS02006247WS02006245        0.01      0.01      0.01      4.40         0.01
  WS02006243WS02006242        0.01      0.01      0.69      0.01         0.01
  WS02006242WS02006240        0.01      0.01      1.09      1.85         0.01
  WS02006240WS02006239        0.03      0.03      0.09      0.23         0.01
  WS02006239WS02006238        0.80      0.81      0.86      0.41         0.17
  WS02006238WS02006235        0.71      0.71      1.21      0.01         0.01
  WS02006235WS02006234        0.01      0.01      0.57      5.64         0.01
  WS02006234WS02006232        0.13      0.13      1.30      0.01         0.01
  WS02006232WS02006231        0.01      0.01      1.30      0.01         0.01
  WS02006231WS02006230        0.01      0.01      0.01      5.71         0.01
  WS02006230WS02006229        2.15      3.08      2.15      5.81         2.15
  WS02006228WS02006109        1.13      1.83      1.13      4.62         1.13
  WS02006112WS02006115        0.01      0.01      0.19      0.01         0.01
  WS02006111WS02006112        0.01      0.01      3.71      0.01         0.01
  WS02006110WS02006113        0.01      0.01      1.54      0.01         0.01
  WS02006109WS02006110        0.01      0.01      1.83      0.01         0.01
  WS02004404WS02004405        0.01      0.01      0.01      5.63         0.01
  WS02003072WS02003073        0.01      0.01      0.01      2.74         0.01
  YS02001759YS02001757        5.24      5.24      5.36      0.01         0.01
  YS02001762YS02001759        5.18      5.18      5.24      0.01         0.01
  YS02001765YS02001762        4.71      4.71      5.18      0.01         0.01
  YS02001770YS02001767        4.09      4.09      4.13      0.01         0.46
  YS02001774YS02001770        3.27      3.27      5.12      0.01         0.01
  YS02001779YS02001774        0.20      0.20      5.12      0.01         0.01
  YS02001649YS02001757        5.20      5.20      5.36      0.01         0.01
  YS02001767YS02001765        4.13      4.13      4.71      0.01         0.01
  YS02001788YS02001790        0.01      0.01      0.56      0.01         0.01
  YS02001790YS02001791        0.56      0.56      0.67      0.01         0.01
  YS02001791YS02001793        0.67      0.67      1.32      0.01         0.01
  YS02001629YS02163301        2.82      2.82      3.78      0.01         0.01
  YS02001622YS02001625        0.01      0.01      1.83      0.01         0.01
  YS02001625YS02001629        0.01      0.01      1.83      0.01         0.01
  YS02163301YS02001633        3.78      3.78      4.63      0.01         0.01
  YS02163601YS02164001        4.54      4.54      5.19      0.01         0.01
  YS02164001YS02001641        4.54      4.54      4.96      0.01         0.01
  YS02001641YS02001644        4.96      4.96      5.01      0.01         0.24
  YS02001647YS02001649        1.65      1.65      5.20      0.01         0.01
  YS02001633YS02163601        4.33      4.33      5.19      0.01         0.01
  YS02001644YS02001647        1.65      1.65      5.01      0.01         0.01
  YS02001751YS02001754        0.01      0.01      0.40      0.01         0.01
  YS02001754YS02001757        1.65      1.65      5.36      0.01         0.01
  YS02001652YS02001649        1.86      1.86      5.20      0.01         0.01
  YS02001655YS02001652        0.01      0.01      1.26      0.01         0.01
  YS02001793JiankangQianchi        1.17      1.17      3.88      0.01         0.01
  YS02001757CaochengTiaoxuchi        0.01      0.01      5.36      0.01         0.01
  
  
  ***************
  Pumping Summary
  ***************
  
  ---------------------------------------------------------------------------------------------------------
                                                  Min       Avg       Max     Total     Power    % Time Off
                        Percent   Number of      Flow      Flow      Flow    Volume     Usage    Pump Curve
  Pump                 Utilized   Start-Ups       LPS       LPS       LPS  10^6 ltr     Kw-hr    Low   High
  ---------------------------------------------------------------------------------------------------------
  CC-Pump-1               46.81           5      0.00    140.71    200.00     1.860      6.21    0.0   13.6
  CC-Pump-2               58.27           4      0.00    149.48    200.00     2.405      7.65    0.0   12.4
  JK-Pump-1               44.66           8      0.00    130.89    300.00     1.171     14.97    0.0    0.0
  JK-Pump-2               70.21           7      0.00    148.38    300.00     2.228     28.29    0.0    0.0
  XR-Pump-1               57.43           6      0.00     64.06     95.00     0.969      5.69    0.0    0.0
  XR-Pump-2               59.56           7      0.00     66.33     95.00     1.112      7.90    0.0    0.0
  XR-Pump-3               61.68           8      0.00     61.20     95.00     1.054      6.32    0.0    0.0
  XR-Pump-4               68.08           8      0.00     65.17     95.00     1.254      8.63    0.0    0.0
  

  Analysis begun on:  Thu Jan  6 00:52:40 2022
  Analysis ended on:  Thu Jan  6 00:52:43 2022
  Total elapsed time: 00:00:03