
  EPA STORM WATER MANAGEMENT MODEL - VERSION 5.1 (Build 5.3.0.dev0)
  --------------------------------------------------------------

  WARNING 04: minimum elevation drop used for Conduit WS02004404WS02004405
  WARNING 03: negative offset ignored for Link YS02001904YS02001907
  
  *********************************************************
  NOTE: The summary statistics displayed in this report are
  based on results found at every computational time step,  
  not just on results from each reporting time step.
  *********************************************************
  
  ****************
  Analysis Options
  ****************
  Flow Units ............... LPS
  Process Models:
    Rainfall/Runoff ........ YES
    RDII ................... NO
    Snowmelt ............... NO
    Groundwater ............ NO
    Flow Routing ........... YES
    Ponding Allowed ........ NO
    Water Quality .......... NO
  Infiltration Method ...... HORTON
  Flow Routing Method ...... DYNWAVE
  Surcharge Method ......... EXTRAN
  Starting Date ............ 08/28/2015 08:00:00
  Ending Date .............. 08/28/2015 15:50:00
  Antecedent Dry Days ...... 8.0
  Report Time Step ......... 00:01:00
  Wet Time Step ............ 00:01:00
  Dry Time Step ............ 00:01:00
  Routing Time Step ........ 5.00 sec
  Variable Time Step ....... YES
  Maximum Trials ........... 8
  Number of Threads ........ 4
  Head Tolerance ........... 0.001500 m
  
  
  **************************        Volume         Depth
  Runoff Quantity Continuity     hectare-m            mm
  **************************     ---------       -------
  Total Precipitation ......         1.933         4.232
  Evaporation Loss .........         0.000         0.000
  Infiltration Loss ........         0.477         1.045
  Surface Runoff ...........         0.652         1.428
  Final Storage ............         0.804         1.760
  Continuity Error (%) .....        -0.017
  
  
  **************************        Volume        Volume
  Flow Routing Continuity        hectare-m      10^6 ltr
  **************************     ---------     ---------
  Dry Weather Inflow .......         0.616         6.165
  Wet Weather Inflow .......         0.652         6.516
  Groundwater Inflow .......         0.000         0.000
  RDII Inflow ..............         0.000         0.000
  External Inflow ..........         0.102         1.024
  External Outflow .........         1.155        11.546
  Flooding Loss ............         0.100         0.997
  Evaporation Loss .........         0.000         0.000
  Exfiltration Loss ........         0.000         0.000
  Initial Stored Volume ....         0.076         0.761
  Final Stored Volume ......         0.222         2.215
  Continuity Error (%) .....        -2.028
  
  
  *************************
  Highest Continuity Errors
  *************************
  Node HS02004842 (36.44%)
  Node YS02001884 (30.77%)
  Node YS02001774 (15.29%)
  Node JK-storage (-12.59%)
  Node YSB1171 (10.43%)
  
  
  ***************************
  Time-Step Critical Elements
  ***************************
  Link WS02006252WS02006251 (75.64%)
  Link 3 (11.27%)
  Link WS02006280WS02006229 (3.96%)
  Link WS02006238WS02006235 (3.83%)
  
  
  ********************************
  Highest Flow Instability Indexes
  ********************************
  Link WS02006113WS02006111 (51)
  Link WS02006111WS02006112 (15)
  Link YS02001754YS02001757 (4)
  Link YS02001762YS02001759 (3)
  Link YS02001751YS02001754 (3)
  
  
  *************************
  Routing Time Step Summary
  *************************
  Minimum Time Step           :     0.50 sec
  Average Time Step           :     1.10 sec
  Maximum Time Step           :     5.00 sec
  Percent in Steady State     :    -0.00
  Average Iterations per Step :     2.04
  Percent Not Converging      :     0.36
  
  
  ***************************
  Subcatchment Runoff Summary
  ***************************
  
  ------------------------------------------------------------------------------------------------------------------------------
                            Total      Total      Total      Total     Imperv       Perv      Total       Total     Peak  Runoff
                           Precip      Runon       Evap      Infil     Runoff     Runoff     Runoff      Runoff   Runoff   Coeff
  Subcatchment                 mm         mm         mm         mm         mm         mm         mm    10^6 ltr      LPS
  ------------------------------------------------------------------------------------------------------------------------------
  sub0                       4.23       0.00       0.00       0.30       2.67       0.00       2.67        0.00     0.79   0.631
  sub1                       4.23       0.00       0.00       0.47       2.51       0.00       2.51        0.02     4.06   0.594
  sub2                       4.23       0.00       0.00       1.57       1.76       0.00       1.76        0.02     3.58   0.416
  sub3                       4.23       0.00       0.00       1.57       1.73       0.00       1.73        0.04     7.33   0.409
  sub4                       4.23       0.00       0.00       0.47       2.39       0.00       2.39        0.05     8.19   0.564
  sub5                       4.23       0.00       0.00       0.30       2.63       0.00       2.63        0.03     7.22   0.621
  sub7                       4.23       0.00       0.00       0.38       2.60       0.00       2.60        0.01     2.57   0.614
  sub8                       4.23       0.00       0.00       0.38       2.59       0.00       2.59        0.02     4.52   0.612
  sub9                       4.23       0.00       0.00       0.38       2.59       0.00       2.59        0.01     3.34   0.611
  sub10                      4.23       0.00       0.00       0.34       2.60       0.00       2.60        0.03     7.22   0.615
  sub11                      4.23       0.00       0.00       0.34       2.62       0.00       2.62        0.03     8.50   0.619
  sub12                      4.23       0.00       0.00       0.55       2.49       0.00       2.49        0.02     7.25   0.589
  sub14                      4.23       0.00       0.00       0.38       2.58       0.00       2.58        0.02     6.53   0.611
  sub15                      4.23       0.00       0.00       1.27       1.99       0.00       1.99        0.03     8.86   0.469
  sub16                      4.23       0.00       0.00       1.40       1.92       0.00       1.92        0.02     6.36   0.453
  sub17                      4.23       0.00       0.00       1.35       1.94       0.00       1.94        0.02     5.13   0.459
  sub22                      4.23       0.00       0.00       1.82       1.62       0.00       1.62        0.10    29.11   0.384
  sub23                      4.23       0.00       0.00       1.57       1.80       0.00       1.80        0.09    24.81   0.425
  sub60                      4.23       0.00       0.00       0.51       1.55       0.00       1.55        0.47    39.92   0.367
  sub61                      4.23       0.00       0.00       0.72       1.71       0.00       1.71        0.53    50.94   0.405
  sub62                      4.23       0.00       0.00       0.34       1.82       0.00       1.82        0.56    51.91   0.431
  sub63                      4.23       0.00       0.00       1.23       1.55       0.00       1.55        0.47    47.72   0.365
  sub64                      4.23       0.00       0.00       0.63       1.48       0.00       1.48        0.45    37.84   0.350
  sub65                      4.23       0.00       0.00       0.55       1.50       0.00       1.50        0.46    38.31   0.354
  sub66                      4.23       0.00       0.00       1.23       1.31       0.00       1.31        0.40    34.96   0.309
  sub67                      4.23       0.00       0.00       0.34       2.06       0.00       2.06        0.64    67.22   0.486
  sub68                      4.23       0.00       0.00       0.59       1.84       0.00       1.84        0.57    56.45   0.434
  sub69                      4.23       0.00       0.00       0.63       2.04       0.00       2.04        0.48    56.62   0.482
  sub70                      4.23       2.08       0.00       2.15       2.35       0.00       2.35        0.54    42.00   0.371
  sub71                      4.23       0.00       0.00       0.34       1.72       0.00       1.72        0.41    36.02   0.407
  sub72                      4.23       0.00       0.00       0.30       1.14       0.00       1.14        0.23    16.24   0.270
  sub73                      4.23       2.28       0.00       2.21       2.28       0.00       2.28        0.54    35.81   0.350
  sub74                      4.23       0.00       0.00       3.17       0.62       0.00       0.62        0.25    31.71   0.147
  
  
  ******************
  Node Depth Summary
  ******************
  
  ---------------------------------------------------------------------------------
                                 Average  Maximum  Maximum  Time of Max    Reported
                                   Depth    Depth      HGL   Occurrence   Max Depth
  Node                 Type       Meters   Meters   Meters  days hr:min      Meters
  ---------------------------------------------------------------------------------
  WS02001211           JUNCTION     0.61     0.75     5.59     0  07:00        0.75
  WS02001212           JUNCTION     0.34     0.45     5.52     0  07:01        0.45
  WS02001213           JUNCTION     0.56     0.68     5.44     0  07:01        0.68
  WS02003069           JUNCTION     0.37     0.46     5.05     0  04:50        0.46
  WS02003072           JUNCTION     0.44     0.53     4.90     0  04:51        0.53
  WS02003073           JUNCTION     0.26     0.32     4.38     0  04:52        0.32
  WS02003060           JUNCTION     0.33     0.41     5.34     0  04:50        0.41
  WS02003066           JUNCTION     0.20     0.26     5.82     0  04:54        0.26
  WS02003059           JUNCTION     0.62     0.73     5.41     0  07:01        0.73
  WS02003067           JUNCTION     0.50     0.64     5.96     0  04:54        0.64
  WS02004401           JUNCTION     0.58     0.75     6.75     0  04:50        0.75
  WS02004402           JUNCTION     0.61     0.78     6.74     0  04:50        0.78
  WS02004403           JUNCTION     0.64     0.80     6.73     0  04:50        0.80
  WS02004404           JUNCTION     0.71     0.88     6.73     0  04:50        0.88
  WS02004406           JUNCTION     0.73     0.88     6.71     0  04:50        0.88
  WS02004409           JUNCTION     0.40     0.57     6.34     0  04:52        0.57
  WS02004410           JUNCTION     0.42     0.59     6.31     0  04:53        0.59
  WS02004411           JUNCTION     0.44     0.60     6.28     0  04:53        0.60
  WS02004412           JUNCTION     0.46     0.62     6.26     0  04:53        0.62
  WS02004413           JUNCTION     0.61     0.78     6.25     0  04:53        0.78
  WS02004405           JUNCTION     0.71     0.87     6.72     0  04:50        0.87
  WS02006109           JUNCTION     0.65     0.83     7.45     0  04:44        0.83
  WS02006110           JUNCTION     0.66     0.82     7.41     0  04:44        0.82
  WS02006111           JUNCTION     0.18     0.25     6.96     0  04:45        0.25
  WS02006112           JUNCTION     0.74     0.93     6.81     0  04:49        0.93
  WS02006113           JUNCTION     0.28     0.39     7.28     0  04:45        0.39
  WS02006115           JUNCTION     0.47     0.64     6.78     0  04:49        0.64
  WS02006116           JUNCTION     0.55     0.72     6.76     0  04:50        0.72
  WS02006230           JUNCTION     0.59     0.85     7.60     0  04:44        0.85
  WS02006231           JUNCTION     0.39     0.58     7.71     0  04:44        0.58
  WS02006232           JUNCTION     0.52     0.74     7.78     0  04:43        0.74
  WS02006234           JUNCTION     0.43     0.69     7.84     0  04:43        0.68
  WS02006235           JUNCTION     0.46     0.72     7.89     0  04:43        0.72
  WS02006238           JUNCTION     0.48     0.75     7.90     0  04:43        0.75
  WS02006240           JUNCTION     0.38     0.68     7.97     0  04:42        0.68
  WS02006242           JUNCTION     0.44     0.75     8.02     0  04:42        0.75
  WS02006243           JUNCTION     0.33     0.63     8.05     0  04:42        0.63
  WS02006245           JUNCTION     0.33     0.61     8.09     0  04:42        0.61
  WS02006247           JUNCTION     0.35     0.62     8.12     0  04:42        0.62
  WS02006248           JUNCTION     0.30     0.56     8.14     0  04:42        0.56
  WS02006249           JUNCTION     0.34     0.58     8.18     0  04:41        0.58
  WS02006239           JUNCTION     0.44     0.73     7.94     0  04:43        0.73
  WS02006251           JUNCTION     0.33     0.60     8.27     0  04:40        0.59
  WS02006252           JUNCTION     0.30     0.59     8.83     0  06:30        0.58
  WS02006253           JUNCTION     0.36     0.63     8.27     0  04:40        0.62
  WS02006256           JUNCTION     0.85     2.35     9.28     0  00:00        1.20
  WS02004138           JUNCTION     0.14     0.19     7.44     0  07:00        0.19
  WS02004407           JUNCTION     0.18     0.26     6.57     0  04:50        0.26
  WS02006228           JUNCTION     0.64     0.84     7.49     0  04:44        0.84
  WS02006229           JUNCTION     0.61     0.82     7.52     0  04:44        0.82
  WS02006280           JUNCTION     0.05     0.11     8.38     0  02:24        0.11
  WS02006284           JUNCTION     0.33     0.43     8.83     0  02:24        0.43
  WS02006287           JUNCTION     0.07     0.16     9.11     0  02:24        0.16
  WSF200               JUNCTION     0.17     0.26     5.50     0  04:52        0.26
  HS02004901           JUNCTION     0.10     0.19    10.01     0  02:22        0.19
  HS02004881           JUNCTION     0.00     0.02     9.05     0  02:23        0.02
  HS02004876           JUNCTION     0.03     0.09     9.12     0  02:23        0.09
  HS02004870           JUNCTION     0.01     0.03     9.31     0  02:24        0.03
  HS02004862           JUNCTION     0.01     0.03     9.42     0  02:25        0.03
  HS02004856           JUNCTION     0.07     0.09     9.52     0  02:24        0.09
  HS02004852           JUNCTION     0.00     0.02     9.53     0  02:25        0.02
  HS02004848           JUNCTION     0.00     0.02     9.62     0  02:22        0.02
  HS02004842           JUNCTION     0.32     0.35     9.62     0  02:22        0.35
  HS02004837           JUNCTION     0.02     0.04     9.62     0  02:22        0.04
  HS02004830           JUNCTION     0.03     0.05     9.52     0  02:23        0.05
  HS02004824           JUNCTION     0.02     0.03     9.43     0  02:26        0.03
  HS02004817           JUNCTION     0.41     0.49     9.33     0  02:25        0.49
  HS02004807           JUNCTION     0.10     0.16     9.33     0  02:24        0.16
  HS02004802           JUNCTION     0.14     0.20     9.33     0  02:24        0.20
  HS02004799           JUNCTION     0.08     0.20     9.41     0  02:22        0.20
  HS02004792           JUNCTION     0.02     0.07     9.59     0  02:21        0.07
  HS02004788           JUNCTION     0.01     0.05     9.95     0  02:23        0.05
  HS02004785           JUNCTION     0.03     0.10    10.00     0  02:23        0.10
  HS02004777           JUNCTION     0.12     0.21    10.01     0  02:23        0.21
  HS02004770           JUNCTION     0.09     0.18    10.01     0  02:22        0.18
  HS02004480           JUNCTION     0.05     0.15     9.39     0  02:23        0.15
  HS02004479           JUNCTION     0.09     0.18     9.39     0  02:23        0.18
  HS02004478           JUNCTION     0.04     0.09     9.32     0  02:24        0.09
  YS02001745           JUNCTION     0.06     0.09     7.60     0  03:01        0.09
  YS02001748           JUNCTION     0.11     0.24     7.32     0  04:32        0.24
  YS02001751           JUNCTION     0.28     0.43     7.31     0  04:34        0.43
  YS02001754           JUNCTION     0.53     0.72     7.32     0  04:32        0.70
  YS02001762           JUNCTION     0.72     0.90     7.30     0  04:03        0.90
  YS02001765           JUNCTION     0.67     0.85     7.30     0  04:03        0.85
  YS02001767           JUNCTION     0.64     0.81     7.30     0  04:01        0.81
  YS02001770           JUNCTION     0.63     0.80     7.30     0  04:01        0.80
  YS02001774           JUNCTION     0.70     0.87     7.30     0  04:01        0.87
  YS02001779           JUNCTION     0.45     0.62     7.30     0  04:02        0.62
  YS02001882           JUNCTION     0.22     0.33     7.05     0  03:00        0.33
  YS02001884           JUNCTION     0.31     0.43     7.05     0  03:01        0.43
  YS02001759           JUNCTION     0.75     0.94     7.30     0  04:00        0.93
  YS02001887           JUNCTION     0.39     0.51     7.05     0  03:00        0.51
  YS02001890           JUNCTION     0.42     0.54     7.05     0  03:00        0.54
  YS02001898           JUNCTION     0.19     0.30     7.03     0  03:01        0.30
  YS02001901           JUNCTION     0.31     0.42     7.03     0  03:02        0.42
  YS02001904           JUNCTION     0.29     0.40     7.03     0  03:01        0.40
  YS02001907           JUNCTION     0.62     0.74     7.03     0  03:01        0.74
  YS02001910           JUNCTION     0.41     0.52     7.03     0  03:01        0.52
  YS02001915           JUNCTION     0.21     0.31     7.03     0  03:00        0.31
  YS02001918           JUNCTION     0.06     0.07     7.14     0  03:04        0.07
  YS02001619           JUNCTION     0.24     0.37     7.30     0  04:01        0.37
  YS02001629           JUNCTION     0.58     0.75     7.30     0  04:02        0.75
  YS02001641           JUNCTION     0.69     0.86     7.30     0  04:03        0.86
  YS02001644           JUNCTION     0.69     0.87     7.30     0  04:03        0.86
  YS02001652           JUNCTION     0.54     0.71     7.31     0  04:30        0.71
  YS02001655           JUNCTION     0.31     0.46     7.31     0  04:33        0.46
  YS02001920           JUNCTION     0.15     0.17     7.17     0  03:03        0.17
  YS02001923           JUNCTION     0.05     0.06     7.32     0  03:02        0.06
  YS02001926           JUNCTION     0.11     0.14     7.58     0  03:02        0.14
  YS02001929           JUNCTION     0.05     0.06     7.76     0  03:01        0.06
  YS02001658           JUNCTION     0.08     0.17     7.31     0  04:34        0.16
  YS02001661           JUNCTION     0.12     0.16     7.57     0  02:54        0.16
  YS02001664           JUNCTION     0.05     0.09     8.01     0  02:53        0.09
  YS02001622           JUNCTION     0.26     0.39     7.30     0  04:01        0.39
  YS02001633           JUNCTION     0.67     0.84     7.30     0  04:04        0.84
  YS02001649           JUNCTION     0.73     0.91     7.30     0  04:01        0.91
  YS02001757           JUNCTION     0.85     1.04     7.30     0  04:00        1.04
  YS02001895           JUNCTION     0.19     0.30     7.04     0  03:00        0.30
  YS02001625           JUNCTION     0.54     0.69     7.30     0  04:01        0.69
  YS02163301           JUNCTION     0.61     0.78     7.30     0  04:00        0.78
  YS02163601           JUNCTION     0.73     0.90     7.30     0  04:03        0.90
  YS02164001           JUNCTION     0.67     0.84     7.30     0  04:00        0.84
  YS02001647           JUNCTION     0.52     0.69     7.30     0  04:03        0.69
  YSB1154              JUNCTION     0.22     0.33     9.39     0  02:23        0.33
  YSB6556              JUNCTION     0.12     0.22     9.39     0  02:22        0.22
  YSB1174              JUNCTION     0.18     0.28     9.39     0  02:23        0.28
  YSB1171              JUNCTION     0.38     0.49     9.39     0  02:23        0.49
  YS02006553           JUNCTION     0.62     0.75     7.03     0  03:01        0.75
  YS02006561           JUNCTION     0.11     0.16     6.82     0  03:01        0.16
  YS02006556           JUNCTION     0.59     0.72     7.03     0  03:00        0.72
  YS02006558           JUNCTION     0.64     0.76     7.03     0  03:00        0.76
  YS02001783           JUNCTION     0.20     0.52     6.66     0  03:37        0.52
  YS02001784           JUNCTION     0.23     0.59     6.66     0  03:37        0.58
  YS02001786           JUNCTION     0.21     0.61     6.64     0  03:37        0.61
  YS02001788           JUNCTION     0.17     0.66     6.63     0  03:37        0.65
  YS02001790           JUNCTION     0.25     1.73     7.38     0  03:32        0.98
  YS02001791           JUNCTION     0.24     1.48     6.95     0  03:32        1.14
  YS02001793           JUNCTION     0.34     1.84     6.67     0  03:33        1.77
  WS02004139           JUNCTION     0.55     0.70     5.61     0  07:00        0.70
  WSC                  OUTFALL      0.26     0.32     0.99     0  04:52        0.32
  3                    OUTFALL      0.03     0.23     6.23     0  00:00        0.19
  4                    OUTFALL      0.01     0.08     7.08     0  04:41        0.08
  5                    OUTFALL      0.00     0.00     5.00     0  00:00        0.00
  JK-storage           STORAGE      1.67     5.80     6.60     0  03:36        5.80
  CC-storage           STORAGE      0.14     0.26     7.26     0  03:59        0.26
  XR-storage           STORAGE      7.43     7.72     5.72     0  02:33        7.72
  
  
  *******************
  Node Inflow Summary
  *******************
  
  -------------------------------------------------------------------------------------------------
                                  Maximum  Maximum                  Lateral       Total        Flow
                                  Lateral    Total  Time of Max      Inflow      Inflow     Balance
                                   Inflow   Inflow   Occurrence      Volume      Volume       Error
  Node                 Type           LPS      LPS  days hr:min    10^6 ltr    10^6 ltr     Percent
  -------------------------------------------------------------------------------------------------
  WS02001211           JUNCTION      7.35   380.63     0  07:00       0.207        5.49       0.401
  WS02001212           JUNCTION      0.00   375.92     0  07:00           0        5.47       0.259
  WS02001213           JUNCTION      0.00   374.59     0  07:01           0        5.45       0.299
  WS02003069           JUNCTION      0.32   629.21     0  04:50     0.00902        10.7       0.208
  WS02003072           JUNCTION      0.00   629.14     0  04:51           0        10.7       0.278
  WS02003073           JUNCTION      1.82   630.92     0  04:51      0.0514        10.7       0.308
  WS02003060           JUNCTION     16.53   628.83     0  04:49       0.466        10.7       0.202
  WS02003066           JUNCTION      0.00   403.12     0  04:54           0        4.87       0.085
  WS02003059           JUNCTION      0.00   373.73     0  07:01           0        5.44       0.536
  WS02003067           JUNCTION      0.00   403.10     0  04:54           0        4.88       0.180
  WS02004401           JUNCTION      0.00   406.77     0  04:48           0        5.09       0.360
  WS02004402           JUNCTION      0.00   406.21     0  04:49           0        5.07       0.348
  WS02004403           JUNCTION      0.00   405.89     0  04:49           0        5.05       0.322
  WS02004404           JUNCTION      0.16   405.88     0  04:50     0.00457        5.04       0.247
  WS02004406           JUNCTION      0.00   405.81     0  04:50           0        5.01       0.608
  WS02004409           JUNCTION      0.00   405.75     0  04:50           0        4.97       0.281
  WS02004410           JUNCTION      0.00   404.76     0  04:51           0        4.96       0.329
  WS02004411           JUNCTION      0.00   403.99     0  04:52           0        4.94       0.346
  WS02004412           JUNCTION      0.00   403.52     0  04:53           0        4.92       0.383
  WS02004413           JUNCTION      0.00   403.23     0  04:53           0        4.91       0.576
  WS02004405           JUNCTION      0.04   405.87     0  04:50     0.00107        5.03       0.376
  WS02006109           JUNCTION      1.23   411.73     0  04:44      0.0347        5.16       0.252
  WS02006110           JUNCTION      0.00   411.70     0  04:44           0        5.15       0.287
  WS02006111           JUNCTION      0.00   421.23     0  04:45           0        5.13       0.051
  WS02006112           JUNCTION      5.13   412.57     0  04:45      0.0167        5.14       0.467
  WS02006113           JUNCTION      0.00   411.65     0  04:44           0        5.13       0.120
  WS02006115           JUNCTION      0.00   409.67     0  04:45           0        5.12       0.314
  WS02006116           JUNCTION      0.00   407.77     0  04:47           0         5.1       0.314
  WS02006230           JUNCTION     10.28   396.21     0  04:43        0.29        4.51       0.153
  WS02006231           JUNCTION      0.00   387.43     0  04:42           0        4.23       0.214
  WS02006232           JUNCTION      0.00   387.67     0  04:42           0        4.24       0.251
  WS02006234           JUNCTION      0.00   389.04     0  04:42           0        4.24       0.034
  WS02006235           JUNCTION      0.00   389.24     0  04:41           0        4.27       0.179
  WS02006238           JUNCTION      0.00   313.18     0  05:42           0        2.98       0.089
  WS02006240           JUNCTION      0.00   320.78     0  07:32           0        2.96       0.126
  WS02006242           JUNCTION      0.00   330.09     0  07:31           0        2.96       0.144
  WS02006243           JUNCTION      0.00   337.62     0  06:31           0        2.94      -0.347
  WS02006245           JUNCTION      0.00   343.50     0  06:31           0        2.95       0.231
  WS02006247           JUNCTION      0.00   348.43     0  06:30           0        2.95       0.035
  WS02006248           JUNCTION      0.00   352.57     0  06:30           0        2.95      -0.147
  WS02006249           JUNCTION      0.00   392.74     0  04:40           0        3.02       0.229
  WS02006239           JUNCTION      0.00   314.87     0  05:41           0        2.97      -0.105
  WS02006251           JUNCTION      0.08   400.06     0  04:40     0.00217        3.05      -0.015
  WS02006252           JUNCTION      0.00   399.96     0  04:10           0        2.92       0.004
  WS02006253           JUNCTION      0.79    21.98     0  02:23     0.00216       0.128       0.131
  WS02006256           JUNCTION      0.00   600.00     0  00:00           0         2.1       0.072
  WS02004138           JUNCTION      0.00   379.93     0  07:00           0         5.3       0.060
  WS02004407           JUNCTION      0.00   405.78     0  04:50           0        4.98       0.120
  WS02006228           JUNCTION      0.00   410.59     0  04:44           0        5.14       0.211
  WS02006229           JUNCTION      0.00   410.59     0  04:44           0        5.15       0.187
  WS02006280           JUNCTION      0.00   119.69     0  02:24           0       0.646       0.011
  WS02006284           JUNCTION      0.10   119.69     0  02:24      0.0027       0.647       0.176
  WS02006287           JUNCTION      0.00   119.60     0  02:24           0       0.645       0.107
  WSF200               JUNCTION      0.00   403.11     0  04:54           0        4.86       0.080
  HS02004901           JUNCTION      6.36     6.36     0  02:14      0.0201      0.0202       9.517
  HS02004881           JUNCTION      2.57    21.38     0  02:23     0.00875      0.0905       0.140
  HS02004876           JUNCTION      4.06    19.03     0  02:23      0.0167      0.0823       0.634
  HS02004870           JUNCTION      4.52    15.06     0  02:23      0.0165      0.0657       0.162
  HS02004862           JUNCTION      3.78    10.85     0  02:24      0.0221      0.0493       0.339
  HS02004856           JUNCTION      3.34     7.11     0  02:23      0.0124      0.0287       5.273
  HS02004852           JUNCTION      0.00     3.98     0  02:23           0      0.0163       0.294
  HS02004848           JUNCTION      7.33     7.33     0  02:26      0.0389      0.0389       0.109
  HS02004842           JUNCTION      0.00     4.47     0  00:03           0      0.0357      57.333
  HS02004837           JUNCTION     13.57    16.77     0  02:21       0.208        0.23       0.355
  HS02004830           JUNCTION      0.15    16.91     0  02:22     0.00423       0.221       0.560
  HS02004824           JUNCTION      8.24    25.04     0  02:26      0.0512       0.271       0.199
  HS02004817           JUNCTION      0.60    25.64     0  02:26      0.0169       0.287       6.159
  HS02004807           JUNCTION      8.50    33.40     0  02:24      0.0304       0.301       1.424
  HS02004802           JUNCTION      0.00    33.47     0  02:26           0       0.297       1.387
  HS02004799           JUNCTION      6.53    73.43     0  02:21      0.0246       0.316       0.718
  HS02004792           JUNCTION     29.39    67.07     0  02:21        0.11       0.292       0.143
  HS02004788           JUNCTION     10.53    39.19     0  02:22      0.0812       0.182       0.213
  HS02004785           JUNCTION      0.15    29.04     0  02:21     0.00423       0.103       0.465
  HS02004777           JUNCTION      0.03    29.31     0  02:20    0.000846       0.103       5.266
  HS02004770           JUNCTION     24.81    30.23     0  02:17      0.0857       0.104       3.068
  HS02004480           JUNCTION      0.00    86.46     0  02:23           0       0.364       0.186
  HS02004479           JUNCTION      0.00    13.32     0  02:24           0      0.0611       1.207
  HS02004478           JUNCTION      0.00   119.60     0  02:24           0       0.646       0.102
  YS02001745           JUNCTION     39.92    39.92     0  03:01       0.471       0.471       0.107
  YS02001748           JUNCTION      0.04    73.93     0  04:36     0.00127       0.484      -0.021
  YS02001751           JUNCTION      0.01   100.96     0  04:36     0.00031       0.544       0.433
  YS02001754           JUNCTION      0.26   152.00     0  03:42     0.00733       0.729       1.547
  YS02001762           JUNCTION      0.00    69.13     0  04:39           0       0.563       2.603
  YS02001765           JUNCTION      0.00    73.21     0  03:44           0       0.554       2.817
  YS02001767           JUNCTION      0.54    63.41     0  04:34      0.0151        0.56       3.687
  YS02001770           JUNCTION     52.06    61.77     0  04:34       0.564       0.604       2.924
  YS02001774           JUNCTION      0.00    28.64     0  04:35           0       0.101      18.043
  YS02001779           JUNCTION      0.01    25.13     0  04:35    0.000141      0.0455      13.800
  YS02001882           JUNCTION      0.00     2.24     0  02:12           0     0.00349      70.658
  YS02001884           JUNCTION      0.00     6.65     0  02:08           0      0.0142      44.446
  YS02001759           JUNCTION     50.98   114.72     0  03:00       0.529        1.06       1.556
  YS02001887           JUNCTION     67.67    67.67     0  02:51       0.648       0.654       1.022
  YS02001890           JUNCTION      0.00    67.36     0  02:53           0       0.635       1.159
  YS02001898           JUNCTION      0.00    67.11     0  02:56           0       0.625       0.294
  YS02001901           JUNCTION      0.00    67.13     0  02:56           0       0.625       0.804
  YS02001904           JUNCTION      0.00    66.84     0  02:57           0       0.624       0.750
  YS02001907           JUNCTION      0.00   121.85     0  03:02           0        1.33       1.622
  YS02001910           JUNCTION      0.00    55.18     0  03:01           0       0.715       1.345
  YS02001915           JUNCTION     36.04    54.98     0  03:01       0.407       0.719       0.549
  YS02001918           JUNCTION      0.00    19.12     0  03:03           0       0.312       0.269
  YS02001619           JUNCTION     34.96    34.96     0  03:01         0.4         0.4       0.187
  YS02001629           JUNCTION      0.00    39.07     0  04:44           0       0.382       1.641
  YS02001641           JUNCTION      0.00    71.51     0  03:07           0       0.808       1.643
  YS02001644           JUNCTION     37.88   107.39     0  02:57       0.452        1.24       1.300
  YS02001652           JUNCTION      0.00    59.16     0  05:09           0       0.506       1.956
  YS02001655           JUNCTION      0.15    83.07     0  04:38     0.00434       0.483       0.765
  YS02001920           JUNCTION      2.87    19.13     0  03:02      0.0809       0.314       0.547
  YS02001923           JUNCTION      0.04    16.26     0  03:02     0.00106       0.233       0.097
  YS02001926           JUNCTION      0.05    16.28     0  03:01     0.00147       0.234       0.702
  YS02001929           JUNCTION     16.24    16.24     0  03:01       0.232       0.232       0.092
  YS02001658           JUNCTION      0.00    54.57     0  04:33           0       0.476       0.049
  YS02001661           JUNCTION      0.00    47.72     0  02:53           0       0.467       0.154
  YS02001664           JUNCTION     47.72    47.72     0  02:53       0.467       0.467       0.031
  YS02001622           JUNCTION      0.00    35.80     0  03:00           0         0.4       0.802
  YS02001633           JUNCTION     38.51    75.35     0  02:39       0.466       0.834       2.325
  YS02001649           JUNCTION      0.00   180.01     0  04:41           0        1.69       1.455
  YS02001757           JUNCTION      0.00   358.02     0  03:38           0        3.29       2.143
  YS02001895           JUNCTION      0.00    67.16     0  02:55           0       0.628       0.502
  YS02001625           JUNCTION      0.00    35.98     0  02:55           0       0.396       4.083
  YS02163301           JUNCTION      0.00    41.68     0  02:39           0       0.382       3.445
  YS02163601           JUNCTION      0.11    72.15     0  03:05      0.0031       0.814       2.511
  YS02164001           JUNCTION      0.00    72.87     0  03:05           0       0.803       1.530
  YS02001647           JUNCTION      0.00   108.16     0  03:06           0        1.21       1.068
  YSB1154              JUNCTION      7.22     7.22     0  02:19      0.0297      0.0312       4.859
  YSB6556              JUNCTION      0.00     7.20     0  02:22           0      0.0322       4.012
  YSB1174              JUNCTION      7.25     7.25     0  02:13      0.0218      0.0228       5.960
  YSB1171              JUNCTION      0.00    13.32     0  02:21           0      0.0606      11.643
  YS02006553           JUNCTION      0.00   122.02     0  03:02           0        1.32       1.057
  YS02006561           JUNCTION      0.00   178.54     0  03:00           0        1.86       0.028
  YS02006556           JUNCTION      0.00   122.20     0  03:04           0        1.32       0.757
  YS02006558           JUNCTION     57.33   178.56     0  03:00        0.59        1.89       0.228
  YS02001783           JUNCTION      0.00   178.54     0  03:01           0        1.86       0.066
  YS02001784           JUNCTION      1.06   179.60     0  03:01      0.0299        1.89       0.111
  YS02001786           JUNCTION      0.06   179.65     0  03:01     0.00159        1.89       0.109
  YS02001788           JUNCTION      0.07   179.72     0  03:02       0.002        1.89       0.059
  YS02001790           JUNCTION      0.15   215.30     0  04:10     0.00437        1.89       0.065
  YS02001791           JUNCTION      0.00   234.04     0  04:10           0        1.89       0.030
  YS02001793           JUNCTION      0.00   547.34     0  03:06           0        1.91       0.048
  WS02004139           JUNCTION      0.32   379.46     0  07:00     0.00905        5.31       0.493
  WSC                  OUTFALL       0.00   630.84     0  04:52           0        10.7       0.000
  3                    OUTFALL       0.00   597.65     0  00:00           0       0.793       0.000
  4                    OUTFALL       0.00    62.02     0  04:41           0      0.0651       0.000
  5                    OUTFALL       0.00     0.00     0  00:00           0           0       0.000 ltr
  JK-storage           STORAGE       0.00   781.49     0  03:06           0        2.06     -11.181
  CC-storage           STORAGE       0.00   280.54     0  03:00           0        3.03       0.052
  XR-storage           STORAGE     265.36   265.36     0  03:01        6.42        7.02      -0.004
  
  
  **********************
  Node Surcharge Summary
  **********************
  
  Surcharging occurs when water rises above the top of the highest conduit.
  ---------------------------------------------------------------------
                                               Max. Height   Min. Depth
                                   Hours       Above Crown    Below Rim
  Node                 Type      Surcharged         Meters       Meters
  ---------------------------------------------------------------------
  WS02006109           JUNCTION        0.24          0.014        1.806
  WS02006232           JUNCTION        0.45          0.036        1.444
  WS02006235           JUNCTION        0.11          0.014        1.276
  WS02006238           JUNCTION        0.25          0.033        1.397
  WS02006242           JUNCTION        0.10          0.017        0.803
  WS02006252           JUNCTION        0.96          0.185        0.915
  WS02006256           JUNCTION        0.01          1.050        0.000
  WS02006228           JUNCTION        0.21          0.013        2.187
  YS02001757           JUNCTION        0.85          0.041        1.169
  YS02001790           JUNCTION        0.59          0.932        0.225
  YS02001791           JUNCTION        0.73          0.680        1.240
  YS02001793           JUNCTION        1.09          0.843        1.757
  
  
  *********************
  Node Flooding Summary
  *********************
  
  Flooding refers to all water that overflows a node, whether it ponds or not.
  --------------------------------------------------------------------------
                                                             Total   Maximum
                                 Maximum   Time of Max       Flood    Ponded
                        Hours       Rate    Occurrence      Volume     Depth
  Node                 Flooded       LPS   days hr:min    10^6 ltr    Meters
  --------------------------------------------------------------------------
  WS02006256              0.01    406.11      0  00:00       0.001     0.000
  JK-storage              0.46    182.48      0  03:38       0.200     0.000
  XR-storage              2.42    239.00      0  04:30       0.796     0.000
  
  
  **********************
  Storage Volume Summary
  **********************
  
  --------------------------------------------------------------------------------------------------
                         Average     Avg  Evap Exfil       Maximum     Max    Time of Max    Maximum
                          Volume    Pcnt  Pcnt  Pcnt        Volume    Pcnt     Occurrence    Outflow
  Storage Unit           1000 m3    Full  Loss  Loss       1000 m3    Full    days hr:min        LPS
  --------------------------------------------------------------------------------------------------
  JK-storage               0.084      29     0     0         0.291     100       0  03:36     600.00
  CC-storage               0.378       2     0     0         0.736       5       0  03:59     399.96
  XR-storage               0.892      96     0     0         0.926     100       0  02:33     379.93
  
  
  ***********************
  Outfall Loading Summary
  ***********************
  
  -----------------------------------------------------------
                         Flow       Avg       Max       Total
                         Freq      Flow      Flow      Volume
  Outfall Node           Pcnt       LPS       LPS    10^6 ltr
  -----------------------------------------------------------
  WSC                   99.99    438.49    630.84      10.688
  3                     42.34    119.69    597.65       0.793
  4                     16.13     23.97     62.02       0.065
  5                      0.00      0.00      0.00       0.000
  -----------------------------------------------------------
  System                39.62    582.15   1109.35      11.546
  
  
  ********************
  Link Flow Summary
  ********************
  
  -----------------------------------------------------------------------------
                                 Maximum  Time of Max   Maximum    Max/    Max/
                                  |Flow|   Occurrence   |Veloc|    Full    Full
  Link                 Type          LPS  days hr:min     m/sec    Flow   Depth
  -----------------------------------------------------------------------------
  WS02003066WSF200     CONDUIT    403.11     0  04:54      2.56    0.07    0.20
  WS02006287WS02006284 CONDUIT    119.59     0  02:24      1.34    0.06    0.17
  WS02006284WS02006280 CONDUIT    119.69     0  02:24      1.59    0.05    0.15
  WS02006280WS02006229 CONDUIT    119.69     0  02:24      2.54    0.03    0.11
  WS02006229WS02006228 CONDUIT    410.59     0  04:44      0.85    1.36    1.00
  WS02006256WS02006235 CONDUIT    177.52     0  00:01      2.73    1.88    1.00
  WS02006253WS02006251 CONDUIT     23.98     0  02:35      0.39    0.07    0.87
  WS02006252WS02006251 CONDUIT    399.98     0  04:40      3.18    1.47    1.00
  WS02006251WS02006249 CONDUIT    392.74     0  04:40      1.15    1.13    0.84
  WS02006249WS02006248 CONDUIT    352.57     0  06:30      1.17    1.93    0.79
  WS02006248WS02006247 CONDUIT    348.43     0  06:30      1.14    0.76    0.83
  WS02006247WS02006245 CONDUIT    343.50     0  06:31      1.11    2.72    0.87
  WS02006245WS02006243 CONDUIT    337.62     0  06:31      1.15    1.00    0.88
  WS02006243WS02006242 CONDUIT    330.09     0  07:31      1.01    0.71    0.95
  WS02006242WS02006240 CONDUIT    320.78     0  07:32      0.93    1.27    0.98
  WS02006240WS02006239 CONDUIT    314.87     0  05:41      0.94    0.99    0.98
  WS02006239WS02006238 CONDUIT    313.18     0  05:42      0.86    1.00    1.00
  WS02006238WS02006235 CONDUIT    313.56     0  05:42      1.32    0.70    1.00
  WS02006235WS02006234 CONDUIT    389.04     0  04:42      1.04    4.10    0.98
  WS02006234WS02006232 CONDUIT    387.67     0  04:42      1.17    0.78    0.99
  WS02006232WS02006231 CONDUIT    387.43     0  04:42      1.06    0.81    0.91
  WS02006231WS02006230 CONDUIT    385.93     0  04:43      1.36    5.85    0.75
  WS02006230WS02006229 CONDUIT    395.79     0  04:44      1.03    8.81    1.00
  WS02006228WS02006109 CONDUIT    410.50     0  04:44      0.82    1.79    1.00
  WS02006116WS02004401 CONDUIT    406.77     0  04:48      0.66    0.56    0.74
  WS02006115WS02006116 CONDUIT    407.77     0  04:47      0.85    0.52    0.65
  WS02006113WS02006111 CONDUIT    421.23     0  04:45      2.24    0.50    0.40
  WS02006112WS02006115 CONDUIT    409.67     0  04:45      0.67    0.24    0.78
  WS02006111WS02006112 CONDUIT    412.49     0  04:45      1.19    0.20    0.65
  WS02006110WS02006113 CONDUIT    411.65     0  04:44      1.03    0.37    0.74
  WS02006109WS02006110 CONDUIT    411.70     0  04:44      0.84    0.79    0.94
  WS02004411WS02004412 CONDUIT    403.52     0  04:53      0.81    0.57    0.61
  WS02004401WS02004402 CONDUIT    406.21     0  04:49      0.63    0.49    0.76
  WS02004413WS02003067 CONDUIT    403.10     0  04:54      0.95    0.17    0.53
  WS02004412WS02004413 CONDUIT    403.23     0  04:53      0.69    0.27    0.70
  WS02004410WS02004411 CONDUIT    403.99     0  04:52      0.83    0.55    0.59
  WS02004409WS02004410 CONDUIT    404.76     0  04:51      0.89    0.52    0.58
  WS02004407WS02004409 CONDUIT    405.75     0  04:50      1.39    0.14    0.41
  WS02004406WS02004407 CONDUIT    405.78     0  04:50      0.88    0.18    0.57
  WS02004405WS02004406 CONDUIT    405.81     0  04:50      0.56    0.80    0.88
  WS02004404WS02004405 CONDUIT    405.83     0  04:50      0.56    3.98    0.87
  WS02004403WS02004404 CONDUIT    405.71     0  04:50      0.58    0.29    0.84
  WS02004402WS02004403 CONDUIT    405.89     0  04:49      0.61    0.58    0.79
  WS02004139WS02001211 CONDUIT    373.28     0  07:00      0.80    0.47    0.56
  WS02004138WS02004139 CONDUIT    379.14     0  07:00      3.34    0.08    0.42
  WS02003067WS02003066 CONDUIT    403.12     0  04:54      1.03    0.13    0.38
  WS02001213WS02003059 CONDUIT    373.73     0  07:01      0.80    0.62    0.69
  WS02001212WS02001213 CONDUIT    374.59     0  07:01      1.29    0.58    0.41
  WS02001211WS02001212 CONDUIT    375.92     0  07:00      0.76    0.29    0.60
  WS02003072WS02003073 CONDUIT    629.10     0  04:51      1.50    1.36    0.40
  WS02003069WS02003072 CONDUIT    629.14     0  04:51      1.43    0.30    0.41
  WS02003060WS02003069 CONDUIT    628.89     0  04:50      1.69    0.25    0.36
  WS02003059WS02003060 CONDUIT    373.12     0  07:02      0.91    0.24    0.56
  HS02004901HS02004770 CONDUIT      5.72     0  02:20      0.03    0.02    0.26
  HS02004876HS02004881 CONDUIT     19.04     0  02:24      0.38    0.20    0.07
  HS02004870HS02004876 CONDUIT     15.05     0  02:24      0.27    0.01    0.08
  HS02004842HS02004848 CONDUIT      3.55     0  02:35      0.02    0.00    0.26
  HS02004837HS02004842 CONDUIT      4.47     0  00:03      0.41    0.00    0.28
  HS02004830HS02004837 CONDUIT     16.76     0  02:22      0.38    0.02    0.06
  HS02004824HS02004830 CONDUIT     16.91     0  02:23      0.42    0.02    0.06
  HS02004817HS02004824 CONDUIT     25.04     0  02:26      0.17    0.01    0.37
  HS02004770HS02004777 CONDUIT     29.28     0  02:20      0.15    0.05    0.28
  HS02004799HS02004480 CONDUIT     73.29     0  02:22      0.44    0.09    0.24
  HS02004792HS02004799 CONDUIT     67.04     0  02:21      0.51    0.04    0.19
  HS02004788HS02004792 CONDUIT     39.16     0  02:23      0.68    0.03    0.08
  HS02004785HS02004788 CONDUIT     28.93     0  02:23      0.39    0.22    0.11
  HS02004777HS02004785 CONDUIT     28.89     0  02:21      0.19    0.04    0.22
  HS02004480HS02004478 CONDUIT     86.45     0  02:23      0.76    0.36    0.16
  HS02004479HS02004480 CONDUIT     13.42     0  02:25      0.16    0.01    0.24
  HS02004862HS02004870 CONDUIT     10.82     0  02:25      0.36    0.01    0.04
  HS02004848HS02004852 CONDUIT      3.98     0  02:23      0.23    0.00    0.02
  HS02004856HS02004862 CONDUIT      7.09     0  02:24      0.26    0.01    0.04
  HS02004852HS02004856 CONDUIT      3.95     0  02:25      0.07    0.00    0.08
  HS02004802HS02004478 CONDUIT     33.61     0  02:27      0.23    0.03    0.21
  HS02004478WS02006287 CONDUIT    119.60     0  02:24      1.03    0.03    0.13
  HS02004817HS02004807 CONDUIT     25.86     0  02:29      0.08    0.02    0.46
  HS02004807HS02004802 CONDUIT     33.47     0  02:26      0.19    0.06    0.25
  YS02001759YS02001757 CONDUIT    110.75     0  03:00      0.15    0.08    0.97
  YS02001762YS02001759 CONDUIT     77.04     0  04:44      0.17    0.09    0.92
  YS02001765YS02001762 CONDUIT     69.13     0  04:39      0.22    0.06    0.87
  YS02001770YS02001767 CONDUIT     61.62     0  02:59      0.29    0.24    0.80
  YS02001774YS02001770 CONDUIT     34.46     0  04:34      0.11    0.02    0.82
  YS02001779YS02001774 CONDUIT     25.13     0  04:35      0.06    0.01    0.74
  YS02001649YS02001757 CONDUIT    186.24     0  04:38      0.24    0.11    0.95
  YS02001767YS02001765 CONDUIT     73.21     0  03:44      0.25    0.09    0.83
  YS02006561YS02001783 CONDUIT    178.54     0  03:01      1.54    0.09    0.41
  YS02001783YS02001784 CONDUIT    178.54     0  03:01      1.03    0.25    0.69
  YS02001784YS02001785 CONDUIT    179.59     0  03:01      1.07    0.42    0.75
  YS02001788YS02001790 CONDUIT    215.14     0  04:10      1.62    0.16    0.91
  YS02001790YS02001791 CONDUIT    234.04     0  04:10      1.89    0.25    1.00
  YS02001791YS02001793 CONDUIT    235.72     0  04:10      3.69    0.10    1.00
  YS02001910YS02001907 CONDUIT     55.13     0  03:01      0.49    0.03    0.63
  YS02001786YS02001788 CONDUIT    179.64     0  03:02      1.47    0.35    0.79
  YS02001915YS02001910 CONDUIT     55.18     0  03:01      0.44    0.03    0.42
  YS02001918YS02001915 CONDUIT     19.11     0  03:04      0.44    0.01    0.19
  YS02001923YS02001920 CONDUIT     16.26     0  03:02      0.33    0.01    0.11
  YS02001926YS02001923 CONDUIT     16.23     0  03:02      0.39    0.02    0.10
  YS02001929YS02001926 CONDUIT     16.23     0  03:01      0.40    0.01    0.10
  YS02001920YS02001918 CONDUIT     19.12     0  03:03      0.36    0.02    0.12
  YS02001629YS02163301 CONDUIT     41.68     0  02:39      0.09    0.05    0.76
  YS02001619YS02001622 CONDUIT     35.80     0  03:00      0.55    0.05    0.38
  YS02001622YS02001625 CONDUIT     35.98     0  02:55      0.18    0.02    0.54
  YS02001625YS02001629 CONDUIT     39.07     0  04:44      0.18    0.02    0.53
  YS02163301YS02001633 CONDUIT     40.32     0  02:39      0.08    0.04    0.81
  YS02163601YS02164001 CONDUIT     72.87     0  03:05      0.11    0.06    0.87
  YS02164001YS02001641 CONDUIT     71.51     0  03:07      0.11    0.10    0.85
  YS02001641YS02001644 CONDUIT     73.20     0  04:38      0.12    0.24    0.86
  YS02001647YS02001649 CONDUIT    109.11     0  03:06      0.18    0.06    0.80
  YS02006553YS02006556 CONDUIT    122.20     0  03:04      0.20    0.10    0.71
  YS02006556YS02006558 CONDUIT    122.30     0  03:04      0.20    0.10    0.74
  YSB6556YSB1171       CONDUIT      7.24     0  02:26      0.04    0.01    0.50
  YS02001907YS02006553 CONDUIT    122.02     0  03:02      0.17    0.14    0.81
  YS02006558YS02006561 CONDUIT    178.54     0  03:00      1.98    0.39    0.36
  YS02001633YS02163601 CONDUIT     72.04     0  03:05      0.12    0.08    0.86
  YS02001644YS02001647 CONDUIT    108.16     0  03:06      0.19    0.06    0.78
  YS02001745YS02001748 CONDUIT     39.91     0  03:01      1.21    0.02    0.12
  YS02001748YS02001751 CONDUIT    100.95     0  04:36      0.95    0.05    0.32
  YS02001751YS02001754 CONDUIT     93.74     0  03:41      0.86    0.05    0.55
  YS02001754YS02001757 CONDUIT    124.70     0  03:43      0.33    0.05    0.86
  YS02001882YS02001884 CONDUIT      2.24     0  02:12      0.06    0.00    0.35
  YS02001884YS02001887 CONDUIT      6.65     0  02:08      0.05    0.01    0.45
  YS02001890YS02001895 CONDUIT     67.16     0  02:55      0.22    0.03    0.42
  YS02001895YS02001898 CONDUIT     67.11     0  02:56      0.42    0.12    0.28
  YS02001898YS02001901 CONDUIT     67.13     0  02:56      0.26    0.04    0.36
  YS02001901YS02001904 CONDUIT     66.84     0  02:57      0.22    0.10    0.41
  YS02001904YS02001907 CONDUIT     67.04     0  03:02      0.14    0.02    0.57
  YS02001887YS02001890 CONDUIT     67.36     0  02:53      0.17    0.12    0.50
  YS02001652YS02001649 CONDUIT     94.24     0  04:32      0.26    0.05    0.80
  YS02001655YS02001652 CONDUIT     57.17     0  03:44      0.92    0.03    0.57
  YS02001658YS02001655 CONDUIT     82.92     0  04:38      1.08    0.04    0.30
  YS02001661YS02001658 CONDUIT     47.72     0  02:54      1.22    0.02    0.12
  YS02001664YS02001661 CONDUIT     47.72     0  02:53      0.84    0.01    0.13
  YSB1154YSB6556       CONDUIT      7.20     0  02:22      0.19    0.01    0.39
  YSB1174YSB1171       CONDUIT      6.77     0  02:15      0.04    0.01    0.51
  YSB1171HS02004479    CONDUIT     13.32     0  02:24      0.54    0.01    0.39
  HS02004881HS02006253 CONDUIT     21.37     0  02:23      1.32    0.00    0.21
  YS02001793JiankangQianchi CONDUIT    781.49     0  03:06     10.52    0.06    1.00
  YS02001757CaochengTiaoxuchi CONDUIT    280.54     0  03:00      0.70    0.12    0.63
  WSF200WS02003060     CONDUIT    403.42     0  04:54      1.67    0.09    0.28
  1                    CONDUIT    630.84     0  04:52      2.93    0.22    0.32
  2                    CONDUIT     62.02     0  04:41      4.23    0.15    0.26
  3                    CONDUIT    597.65     0  00:00     10.05    0.95    0.86
  4                    CONDUIT      0.00     0  00:00      0.00    0.00    0.00
  CC-Pump-1            PUMP       200.00     0  05:10              1.00
  CC-Pump-2            PUMP       200.00     0  04:00              1.00
  JK-Pump-1            PUMP       300.00     0  00:00              1.00
  JK-Pump-2            PUMP       300.00     0  00:00              1.00
  XR-Pump-1            PUMP        95.00     0  00:00              1.00
  XR-Pump-2            PUMP        95.00     0  01:10              1.00
  XR-Pump-3            PUMP        95.00     0  00:00              1.00
  XR-Pump-4            PUMP        95.00     0  00:00              1.00
  
  
  ***************************
  Flow Classification Summary
  ***************************
  
  -------------------------------------------------------------------------------------
                      Adjusted    ---------- Fraction of Time in Flow Class ---------- 
                       /Actual         Up    Down  Sub   Sup   Up    Down  Norm  Inlet 
  Conduit               Length    Dry  Dry   Dry   Crit  Crit  Crit  Crit  Ltd   Ctrl  
  -------------------------------------------------------------------------------------
  WS02003066WSF200        1.00   0.07  0.02  0.00  0.00  0.91  0.00  0.00  0.69  0.00
  WS02006287WS02006284    1.00   0.04  0.02  0.00  0.75  0.18  0.00  0.00  0.81  0.00
  WS02006284WS02006280    1.00   0.05  0.00  0.00  0.00  0.00  0.00  0.95  0.00  0.00
  WS02006280WS02006229    1.00   0.05  0.00  0.00  0.00  0.00  0.00  0.95  0.00  0.00
  WS02006229WS02006228    1.00   0.00  0.00  0.00  0.98  0.00  0.00  0.02  0.00  0.00
  WS02006256WS02006235    1.00   0.00  0.00  0.00  0.99  0.01  0.00  0.00  0.00  0.00
  WS02006253WS02006251    1.00   0.03  0.01  0.00  0.95  0.00  0.00  0.00  0.00  0.00
  WS02006252WS02006251    1.00   0.11  0.00  0.00  0.00  0.00  0.89  0.00  0.00  0.00
  WS02006251WS02006249    1.00   0.00  0.00  0.00  1.00  0.00  0.00  0.00  0.37  0.00
  WS02006249WS02006248    1.00   0.00  0.02  0.00  0.81  0.00  0.17  0.00  0.00  0.00
  WS02006248WS02006247    1.00   0.02  0.00  0.00  0.96  0.00  0.00  0.01  0.29  0.00
  WS02006247WS02006245    1.00   0.02  0.00  0.00  0.95  0.00  0.00  0.03  0.00  0.00
  WS02006245WS02006243    1.00   0.02  0.00  0.00  0.91  0.00  0.00  0.07  0.04  0.00
  WS02006243WS02006242    1.00   0.01  0.01  0.00  0.98  0.00  0.00  0.00  0.34  0.00
  WS02006242WS02006240    1.00   0.01  0.00  0.00  0.99  0.00  0.00  0.00  0.00  0.00
  WS02006240WS02006239    1.00   0.00  0.00  0.00  0.92  0.00  0.00  0.07  0.02  0.00
  WS02006239WS02006238    1.00   0.00  0.00  0.00  1.00  0.00  0.00  0.00  0.06  0.00
  WS02006238WS02006235    1.00   0.00  0.00  0.00  1.00  0.00  0.00  0.00  0.00  0.00
  WS02006235WS02006234    1.00   0.00  0.00  0.00  0.93  0.00  0.07  0.00  0.00  0.00
  WS02006234WS02006232    1.00   0.00  0.00  0.00  1.00  0.00  0.00  0.00  0.17  0.00
  WS02006232WS02006231    1.00   0.00  0.00  0.00  0.99  0.00  0.01  0.00  0.00  0.00
  WS02006231WS02006230    1.00   0.01  0.00  0.00  0.22  0.00  0.77  0.00  0.00  0.00
  WS02006230WS02006229    1.00   0.00  0.00  0.00  0.98  0.00  0.00  0.02  0.01  0.00
  WS02006228WS02006109    1.00   0.00  0.00  0.00  0.99  0.00  0.00  0.00  0.01  0.00
  WS02006116WS02004401    1.00   0.03  0.00  0.00  0.97  0.00  0.00  0.00  0.00  0.00
  WS02006115WS02006116    1.00   0.03  0.00  0.00  0.96  0.00  0.00  0.01  0.01  0.00
  WS02006113WS02006111    1.00   0.02  0.00  0.00  0.00  0.98  0.00  0.00  0.19  0.00
  WS02006112WS02006115    1.00   0.02  0.00  0.00  0.97  0.00  0.00  0.00  0.00  0.00
  WS02006111WS02006112    1.00   0.02  0.00  0.00  0.98  0.00  0.00  0.00  0.98  0.00
  WS02006110WS02006113    1.00   0.02  0.00  0.00  0.98  0.00  0.00  0.00  0.00  0.00
  WS02006109WS02006110    1.00   0.00  0.02  0.00  0.98  0.00  0.00  0.00  0.00  0.00
  WS02004411WS02004412    1.00   0.06  0.00  0.00  0.94  0.00  0.00  0.00  0.00  0.00
  WS02004401WS02004402    1.00   0.03  0.00  0.00  0.97  0.00  0.00  0.00  0.00  0.00
  WS02004413WS02003067    1.00   0.07  0.02  0.00  0.00  0.00  0.92  0.00  0.00  0.00
  WS02004412WS02004413    1.00   0.06  0.00  0.00  0.94  0.00  0.00  0.00  0.03  0.00
  WS02004410WS02004411    1.00   0.06  0.00  0.00  0.94  0.00  0.00  0.00  0.01  0.00
  WS02004409WS02004410    1.00   0.06  0.00  0.00  0.94  0.00  0.00  0.00  0.00  0.00
  WS02004407WS02004409    1.00   0.06  0.00  0.00  0.94  0.00  0.00  0.00  0.80  0.00
  WS02004406WS02004407    1.00   0.00  0.06  0.00  0.94  0.00  0.00  0.00  0.00  0.00
  WS02004405WS02004406    1.00   0.00  0.00  0.00  1.00  0.00  0.00  0.00  0.02  0.00
  WS02004404WS02004405    1.00   0.00  0.00  0.00  1.00  0.00  0.00  0.00  0.00  0.00
  WS02004403WS02004404    1.00   0.00  0.03  0.00  0.97  0.00  0.00  0.00  0.02  0.00
  WS02004402WS02004403    1.00   0.03  0.00  0.00  0.97  0.00  0.00  0.00  0.00  0.00
  WS02004139WS02001211    1.00   0.00  0.00  0.00  0.99  0.00  0.01  0.00  0.00  0.00
  WS02004138WS02004139    1.00   0.00  0.00  0.00  0.98  0.01  0.00  0.00  1.00  0.00
  WS02003067WS02003066    1.00   0.08  0.01  0.00  0.91  0.00  0.00  0.00  0.00  0.00
  WS02001213WS02003059    1.00   0.00  0.00  0.00  0.99  0.00  0.00  0.00  0.00  0.00
  WS02001212WS02001213    1.00   0.01  0.00  0.00  0.58  0.00  0.41  0.00  0.00  0.00
  WS02001211WS02001212    1.00   0.00  0.01  0.00  0.99  0.00  0.00  0.00  0.00  0.00
  WS02003072WS02003073    1.00   0.00  0.00  0.00  0.00  0.00  0.00  1.00  0.00  0.00
  WS02003069WS02003072    1.00   0.00  0.00  0.00  0.99  0.01  0.00  0.00  0.40  0.00
  WS02003060WS02003069    1.00   0.00  0.00  0.00  0.98  0.02  0.00  0.00  0.24  0.00
  WS02003059WS02003060    1.00   0.00  0.00  0.00  0.99  0.01  0.00  0.00  0.01  0.00
  HS02004901HS02004770    1.00   0.05  0.00  0.00  0.95  0.00  0.00  0.00  0.03  0.00
  HS02004876HS02004881    1.00   0.02  0.00  0.00  0.98  0.00  0.00  0.00  0.00  0.00
  HS02004870HS02004876    1.00   0.01  0.00  0.00  0.99  0.00  0.00  0.00  0.95  0.00
  HS02004842HS02004848    1.00   0.00  0.05  0.00  0.95  0.00  0.00  0.00  0.71  0.00
  HS02004837HS02004842    1.00   0.00  0.00  0.00  0.99  0.01  0.00  0.00  0.11  0.00
  HS02004830HS02004837    1.00   0.00  0.00  0.00  1.00  0.00  0.00  0.00  0.99  0.00
  HS02004824HS02004830    1.00   0.00  0.00  0.00  1.00  0.00  0.00  0.00  0.00  0.00
  HS02004817HS02004824    1.00   0.00  0.00  0.00  1.00  0.00  0.00  0.00  1.00  0.00
  HS02004770HS02004777    1.00   0.00  0.05  0.00  0.95  0.00  0.00  0.00  0.07  0.00
  HS02004799HS02004480    1.00   0.01  0.02  0.00  0.94  0.00  0.04  0.00  0.00  0.00
  HS02004792HS02004799    1.00   0.00  0.00  0.00  0.98  0.02  0.00  0.00  0.98  0.00
  HS02004788HS02004792    1.00   0.00  0.00  0.00  0.98  0.02  0.00  0.00  0.98  0.00
  HS02004785HS02004788    1.00   0.00  0.00  0.00  1.00  0.00  0.00  0.00  0.00  0.00
  HS02004777HS02004785    1.00   0.00  0.00  0.00  1.00  0.00  0.00  0.00  0.21  0.00
  HS02004480HS02004478    1.00   0.05  0.00  0.00  0.78  0.00  0.00  0.16  0.00  0.00
  HS02004479HS02004480    1.00   0.03  0.00  0.00  0.97  0.00  0.00  0.00  0.16  0.00
  HS02004862HS02004870    1.00   0.00  0.00  0.00  1.00  0.00  0.00  0.00  0.06  0.00
  HS02004848HS02004852    1.00   0.05  0.00  0.00  0.95  0.00  0.00  0.00  0.69  0.00
  HS02004856HS02004862    1.00   0.00  0.08  0.00  0.92  0.00  0.00  0.00  0.73  0.00
  HS02004852HS02004856    1.00   0.05  0.01  0.00  0.94  0.00  0.00  0.00  0.82  0.00
  HS02004802HS02004478    1.00   0.05  0.01  0.00  0.94  0.00  0.00  0.00  0.00  0.00
  HS02004478WS02006287    1.00   0.06  0.00  0.00  0.94  0.00  0.00  0.00  0.81  0.00
  HS02004817HS02004807    1.00   0.00  0.05  0.00  0.95  0.00  0.00  0.00  0.00  0.00
  HS02004807HS02004802    1.00   0.05  0.00  0.00  0.95  0.00  0.00  0.00  0.01  0.00
  YS02001759YS02001757    1.00   0.00  0.00  0.00  1.00  0.00  0.00  0.00  0.17  0.00
  YS02001762YS02001759    1.00   0.00  0.00  0.00  1.00  0.00  0.00  0.00  0.05  0.00
  YS02001765YS02001762    1.00   0.00  0.00  0.00  1.00  0.00  0.00  0.00  0.23  0.00
  YS02001770YS02001767    1.00   0.00  0.00  0.00  1.00  0.00  0.00  0.00  0.00  0.00
  YS02001774YS02001770    1.00   0.00  0.06  0.00  0.94  0.00  0.00  0.00  0.07  0.00
  YS02001779YS02001774    1.00   0.00  0.00  0.00  1.00  0.00  0.00  0.00  0.28  0.00
  YS02001649YS02001757    1.00   0.00  0.00  0.00  1.00  0.00  0.00  0.00  0.19  0.00
  YS02001767YS02001765    1.00   0.00  0.00  0.00  1.00  0.00  0.00  0.00  0.01  0.00
  YS02006561YS02001783    1.00   0.08  0.00  0.00  0.09  0.83  0.00  0.00  0.72  0.00
  YS02001783YS02001784    1.00   0.00  0.08  0.00  0.92  0.00  0.00  0.00  0.09  0.00
  YS02001784YS02001785    1.00   0.00  0.00  0.00  1.00  0.00  0.00  0.00  0.26  0.00
  YS02001788YS02001790    1.00   0.00  0.00  0.00  0.25  0.75  0.00  0.00  0.88  0.00
  YS02001790YS02001791    1.00   0.00  0.00  0.00  0.20  0.80  0.00  0.00  0.24  0.00
  YS02001791YS02001793    1.00   0.00  0.00  0.00  0.22  0.78  0.00  0.00  0.03  0.00
  YS02001910YS02001907    1.00   0.00  0.00  0.00  0.97  0.00  0.00  0.02  0.13  0.00
  YS02001786YS02001788    1.00   0.00  0.00  0.00  0.22  0.78  0.00  0.00  0.00  0.00
  YS02001915YS02001910    1.00   0.00  0.00  0.00  1.00  0.00  0.00  0.00  0.25  0.00
  YS02001918YS02001915    1.00   0.00  0.01  0.00  0.98  0.01  0.00  0.00  0.81  0.00
  YS02001923YS02001920    1.00   0.00  0.00  0.00  1.00  0.00  0.00  0.00  1.00  0.00
  YS02001926YS02001923    1.00   0.00  0.04  0.00  0.00  0.00  0.96  0.00  0.00  0.00
  YS02001929YS02001926    1.00   0.00  0.05  0.00  0.95  0.00  0.00  0.00  0.87  0.00
  YS02001920YS02001918    1.00   0.00  0.01  0.00  0.99  0.00  0.00  0.00  0.00  0.00
  YS02001629YS02163301    1.00   0.07  0.01  0.00  0.92  0.00  0.00  0.00  0.00  0.00
  YS02001619YS02001622    1.00   0.05  0.00  0.00  0.95  0.00  0.00  0.00  0.00  0.00
  YS02001622YS02001625    1.00   0.05  0.00  0.00  0.95  0.00  0.00  0.00  0.14  0.00
  YS02001625YS02001629    1.00   0.05  0.03  0.00  0.89  0.00  0.02  0.00  0.00  0.00
  YS02163301YS02001633    1.00   0.00  0.07  0.00  0.93  0.00  0.00  0.00  0.00  0.00
  YS02163601YS02164001    1.00   0.00  0.04  0.00  0.96  0.00  0.00  0.00  0.00  0.00
  YS02164001YS02001641    1.00   0.02  0.02  0.00  0.96  0.00  0.00  0.00  0.07  0.00
  YS02001641YS02001644    1.00   0.00  0.01  0.00  0.99  0.00  0.00  0.00  0.00  0.00
  YS02001647YS02001649    1.00   0.00  0.08  0.00  0.92  0.00  0.00  0.00  0.01  0.00
  YS02006553YS02006556    1.00   0.02  0.00  0.00  0.98  0.00  0.00  0.00  0.03  0.00
  YS02006556YS02006558    1.00   0.00  0.01  0.00  0.99  0.00  0.00  0.00  0.00  0.00
  YSB6556YSB1171          1.00   0.03  0.02  0.00  0.95  0.00  0.00  0.00  0.00  0.00
  YS02001907YS02006553    1.00   0.01  0.02  0.00  0.98  0.00  0.00  0.00  0.00  0.00
  YS02006558YS02006561    1.00   0.08  0.00  0.00  0.00  0.92  0.00  0.00  0.71  0.00
  YS02001633YS02163601    1.00   0.00  0.01  0.00  0.99  0.00  0.00  0.00  0.20  0.00
  YS02001644YS02001647    1.00   0.00  0.08  0.00  0.92  0.00  0.00  0.00  0.00  0.00
  YS02001745YS02001748    1.00   0.00  0.00  0.00  0.16  0.18  0.00  0.66  0.25  0.00
  YS02001748YS02001751    1.00   0.00  0.00  0.00  0.96  0.04  0.00  0.00  0.49  0.00
  YS02001751YS02001754    1.00   0.00  0.00  0.00  0.91  0.00  0.00  0.09  0.03  0.00
  YS02001754YS02001757    1.00   0.00  0.00  0.00  0.99  0.01  0.00  0.00  0.27  0.00
  YS02001882YS02001884    1.00   0.07  0.01  0.00  0.93  0.00  0.00  0.00  0.00  0.00
  YS02001884YS02001887    1.00   0.03  0.01  0.00  0.96  0.00  0.00  0.00  0.00  0.00
  YS02001890YS02001895    1.00   0.00  0.07  0.00  0.93  0.00  0.00  0.00  0.00  0.00
  YS02001895YS02001898    1.00   0.07  0.00  0.00  0.92  0.00  0.01  0.00  0.00  0.00
  YS02001898YS02001901    1.00   0.07  0.01  0.00  0.92  0.00  0.00  0.00  0.02  0.00
  YS02001901YS02001904    1.00   0.07  0.00  0.00  0.93  0.00  0.00  0.00  0.00  0.00
  YS02001904YS02001907    1.00   0.01  0.06  0.00  0.93  0.00  0.00  0.00  0.00  0.00
  YS02001887YS02001890    1.00   0.00  0.00  0.00  0.97  0.00  0.02  0.00  0.00  0.00
  YS02001652YS02001649    1.00   0.00  0.00  0.00  1.00  0.00  0.00  0.00  0.27  0.00
  YS02001655YS02001652    1.00   0.00  0.00  0.00  0.91  0.00  0.00  0.09  0.03  0.00
  YS02001658YS02001655    1.00   0.00  0.06  0.00  0.90  0.04  0.00  0.00  0.52  0.00
  YS02001661YS02001658    1.00   0.06  0.00  0.00  0.29  0.65  0.00  0.00  0.74  0.00
  YS02001664YS02001661    1.00   0.05  0.00  0.00  0.95  0.00  0.00  0.00  0.86  0.00
  YSB1154YSB6556          1.00   0.05  0.00  0.00  0.95  0.00  0.00  0.00  0.02  0.00
  YSB1174YSB1171          1.00   0.03  0.01  0.00  0.96  0.00  0.00  0.00  0.00  0.00
  YSB1171HS02004479       1.00   0.03  0.00  0.00  0.97  0.00  0.00  0.00  0.13  0.00
  HS02004881HS02006253    1.00   0.03  0.00  0.00  0.62  0.02  0.00  0.33  0.39  0.00
  YS02001793JiankangQianchi    1.00   0.00  0.00  0.00  0.44  0.55  0.00  0.00  0.24  0.00
  YS02001757CaochengTiaoxuchi    1.00   0.00  0.11  0.00  0.89  0.00  0.00  0.00  0.00  0.00
  WSF200WS02003060        1.00   0.00  0.07  0.00  0.66  0.27  0.00  0.00  0.41  0.00
  1                       1.00   0.00  0.00  0.00  0.00  1.00  0.00  0.00  0.42  0.00
  2                       1.00   0.84  0.00  0.00  0.00  0.16  0.00  0.00  0.04  0.00
  3                       1.00   0.58  0.00  0.00  0.00  0.42  0.00  0.00  0.15  0.00
  4                       1.00   1.00  0.00  0.00  0.00  0.00  0.00  0.00  0.00  0.00
  
  
  *************************
  Conduit Surcharge Summary
  *************************
  
  ----------------------------------------------------------------------------
                                                           Hours        Hours 
                         --------- Hours Full --------   Above Full   Capacity
  Conduit                Both Ends  Upstream  Dnstream   Normal Flow   Limited
  ----------------------------------------------------------------------------
  WS02006229WS02006228        0.21      0.30      0.21      1.63         0.21
  WS02006256WS02006235        4.97      4.97      6.40      1.76         0.01
  WS02006252WS02006251        0.34      0.34      0.96      0.80         0.01
  WS02006251WS02006249        0.01      0.01      0.01      0.30         0.01
  WS02006249WS02006248        0.01      0.01      0.01      2.48         0.01
  WS02006247WS02006245        0.01      0.01      0.01      3.18         0.01
  WS02006243WS02006242        0.01      0.01      0.10      0.01         0.01
  WS02006242WS02006240        0.01      0.01      0.33      0.91         0.01
  WS02006239WS02006238        0.20      0.20      0.24      0.01         0.01
  WS02006238WS02006235        0.19      0.19      0.42      0.01         0.01
  WS02006235WS02006234        0.01      0.01      0.11      4.90         0.01
  WS02006234WS02006232        0.01      0.01      0.45      0.01         0.01
  WS02006232WS02006231        0.01      0.01      0.45      0.01         0.01
  WS02006231WS02006230        0.01      0.01      0.01      5.15         0.01
  WS02006230WS02006229        0.81      1.38      0.81      5.34         0.81
  WS02006228WS02006109        0.24      0.58      0.24      3.11         0.24
  WS02006111WS02006112        0.01      0.01      1.78      0.01         0.01
  WS02006110WS02006113        0.01      0.01      0.44      0.01         0.01
  WS02006109WS02006110        0.01      0.01      0.58      0.01         0.01
  WS02004404WS02004405        0.01      0.01      0.01      5.24         0.01
  WS02003072WS02003073        0.01      0.01      0.01      2.99         0.01
  YS02001759YS02001757        0.01      0.01      0.85      0.01         0.01
  YS02001649YS02001757        0.01      0.01      0.85      0.01         0.01
  YS02001788YS02001790        0.01      0.01      0.59      0.01         0.01
  YS02001790YS02001791        0.59      0.59      0.73      0.01         0.01
  YS02001791YS02001793        0.73      0.73      1.14      0.01         0.01
  YS02001754YS02001757        0.01      0.01      0.85      0.01         0.01
  YS02001793JiankangQianchi        1.09      1.09      2.11      0.01         0.01
  YS02001757CaochengTiaoxuchi        0.01      0.01      0.85      0.01         0.01
  3                           0.01      0.01      0.01      0.01         0.01
  
  
  ***************
  Pumping Summary
  ***************
  
  ---------------------------------------------------------------------------------------------------------
                                                  Min       Avg       Max     Total     Power    % Time Off
                        Percent   Number of      Flow      Flow      Flow    Volume     Usage    Pump Curve
  Pump                 Utilized   Start-Ups       LPS       LPS       LPS  10^6 ltr     Kw-hr    Low   High
  ---------------------------------------------------------------------------------------------------------
  CC-Pump-1               49.17           7      0.00    122.95    200.00     1.603      6.49    0.0  100.0
  CC-Pump-2               38.29           5      0.00    132.08    200.00     1.320      5.29    0.0  100.0
  JK-Pump-1               55.31           8      0.00    121.26    300.00     1.340     19.13    0.0    0.0
  JK-Pump-2               48.94           7      0.00     87.17    300.00     0.758     11.31    0.0    0.0
  XR-Pump-1               82.97           9      0.00     62.85     95.00     1.482      9.34    0.0    0.0
  XR-Pump-2               68.06           9      0.00     53.05     95.00     1.083      6.73    0.0    0.0
  XR-Pump-3               76.57          12      0.00     63.77     95.00     1.340      8.08    0.0    0.0
  XR-Pump-4               74.46           8      0.00     68.31     95.00     1.397      9.10    0.0    0.0
  

  Analysis begun on:  Thu Jan  6 00:59:15 2022
  Analysis ended on:  Thu Jan  6 00:59:17 2022
  Total elapsed time: 00:00:02