
  EPA STORM WATER MANAGEMENT MODEL - VERSION 5.1 (Build 5.3.0.dev0)
  --------------------------------------------------------------

  WARNING 04: minimum elevation drop used for Conduit WS02004404WS02004405
  WARNING 03: negative offset ignored for Link YS02001904YS02001907
  
  *********************************************************
  NOTE: The summary statistics displayed in this report are
  based on results found at every computational time step,  
  not just on results from each reporting time step.
  *********************************************************
  
  ****************
  Analysis Options
  ****************
  Flow Units ............... LPS
  Process Models:
    Rainfall/Runoff ........ YES
    RDII ................... NO
    Snowmelt ............... NO
    Groundwater ............ NO
    Flow Routing ........... YES
    Ponding Allowed ........ NO
    Water Quality .......... NO
  Infiltration Method ...... HORTON
  Flow Routing Method ...... DYNWAVE
  Surcharge Method ......... EXTRAN
  Starting Date ............ 08/28/2015 08:00:00
  Ending Date .............. 08/28/2015 15:50:00
  Antecedent Dry Days ...... 8.0
  Report Time Step ......... 00:01:00
  Wet Time Step ............ 00:01:00
  Dry Time Step ............ 00:01:00
  Routing Time Step ........ 5.00 sec
  Variable Time Step ....... YES
  Maximum Trials ........... 8
  Number of Threads ........ 4
  Head Tolerance ........... 0.001500 m
  
  
  **************************        Volume         Depth
  Runoff Quantity Continuity     hectare-m            mm
  **************************     ---------       -------
  Total Precipitation ......         1.841         4.030
  Evaporation Loss .........         0.000         0.000
  Infiltration Loss ........         0.453         0.992
  Surface Runoff ...........         0.594         1.301
  Final Storage ............         0.794         1.738
  Continuity Error (%) .....        -0.017
  
  
  **************************        Volume        Volume
  Flow Routing Continuity        hectare-m      10^6 ltr
  **************************     ---------     ---------
  Dry Weather Inflow .......         0.616         6.165
  Wet Weather Inflow .......         0.594         5.937
  Groundwater Inflow .......         0.000         0.000
  RDII Inflow ..............         0.000         0.000
  External Inflow ..........         0.102         1.024
  External Outflow .........         1.075        10.750
  Flooding Loss ............         0.170         1.699
  Evaporation Loss .........         0.000         0.000
  Exfiltration Loss ........         0.000         0.000
  Initial Stored Volume ....         0.076         0.761
  Final Stored Volume ......         0.207         2.071
  Continuity Error (%) .....        -4.567
  
  
  *************************
  Highest Continuity Errors
  *************************
  Node HS02004842 (37.80%)
  Node YS02001884 (31.92%)
  Node JK-storage (-28.46%)
  Node YS02001774 (20.21%)
  Node YSB1171 (11.11%)
  
  
  ***************************
  Time-Step Critical Elements
  ***************************
  Link WS02006252WS02006251 (77.48%)
  Link 3 (13.25%)
  Link WS02006280WS02006229 (3.30%)
  Link WS02006238WS02006235 (1.57%)
  
  
  ********************************
  Highest Flow Instability Indexes
  ********************************
  Link WS02006113WS02006111 (52)
  Link WS02006111WS02006112 (19)
  Link YS02001754YS02001757 (3)
  Link YS02001751YS02001754 (3)
  Link YS02001767YS02001765 (3)
  
  
  *************************
  Routing Time Step Summary
  *************************
  Minimum Time Step           :     0.01 sec
  Average Time Step           :     1.05 sec
  Maximum Time Step           :     5.00 sec
  Percent in Steady State     :    -0.00
  Average Iterations per Step :     2.01
  Percent Not Converging      :     0.01
  
  
  ***************************
  Subcatchment Runoff Summary
  ***************************
  
  ------------------------------------------------------------------------------------------------------------------------------
                            Total      Total      Total      Total     Imperv       Perv      Total       Total     Peak  Runoff
                           Precip      Runon       Evap      Infil     Runoff     Runoff     Runoff      Runoff   Runoff   Coeff
  Subcatchment                 mm         mm         mm         mm         mm         mm         mm    10^6 ltr      LPS
  ------------------------------------------------------------------------------------------------------------------------------
  sub0                       4.03       0.00       0.00       0.28       2.48       0.00       2.48        0.00     0.64   0.616
  sub1                       4.03       0.00       0.00       0.44       2.33       0.00       2.33        0.02     3.44   0.579
  sub2                       4.03       0.00       0.00       1.49       1.63       0.00       1.63        0.02     3.06   0.406
  sub3                       4.03       0.00       0.00       1.49       1.60       0.00       1.60        0.04     6.36   0.398
  sub4                       4.03       0.00       0.00       0.44       2.21       0.00       2.21        0.05     7.20   0.548
  sub5                       4.03       0.00       0.00       0.28       2.44       0.00       2.44        0.03     6.12   0.605
  sub7                       4.03       0.00       0.00       0.36       2.41       0.00       2.41        0.01     2.13   0.599
  sub8                       4.03       0.00       0.00       0.36       2.40       0.00       2.40        0.02     3.78   0.597
  sub9                       4.03       0.00       0.00       0.36       2.40       0.00       2.40        0.01     2.80   0.596
  sub10                      4.03       0.00       0.00       0.32       2.42       0.00       2.42        0.03     6.09   0.600
  sub11                      4.03       0.00       0.00       0.32       2.43       0.00       2.43        0.03     7.10   0.604
  sub12                      4.03       0.00       0.00       0.52       2.32       0.00       2.32        0.02     5.96   0.575
  sub14                      4.03       0.00       0.00       0.36       2.40       0.00       2.40        0.02     5.48   0.596
  sub15                      4.03       0.00       0.00       1.21       1.84       0.00       1.84        0.03     7.45   0.457
  sub16                      4.03       0.00       0.00       1.33       1.78       0.00       1.78        0.02     5.25   0.442
  sub17                      4.03       0.00       0.00       1.29       1.81       0.00       1.81        0.02     4.25   0.448
  sub22                      4.03       0.00       0.00       1.73       1.51       0.00       1.51        0.10    24.28   0.374
  sub23                      4.03       0.00       0.00       1.49       1.67       0.00       1.67        0.08    20.65   0.414
  sub60                      4.03       0.00       0.00       0.48       1.41       0.00       1.41        0.43    36.57   0.350
  sub61                      4.03       0.00       0.00       0.69       1.56       0.00       1.56        0.48    47.19   0.388
  sub62                      4.03       0.00       0.00       0.32       1.66       0.00       1.66        0.51    47.93   0.412
  sub63                      4.03       0.00       0.00       1.17       1.41       0.00       1.41        0.43    44.25   0.350
  sub64                      4.03       0.00       0.00       0.60       1.34       0.00       1.34        0.41    34.64   0.334
  sub65                      4.03       0.00       0.00       0.52       1.36       0.00       1.36        0.42    35.05   0.337
  sub66                      4.03       0.00       0.00       1.17       1.19       0.00       1.19        0.36    32.10   0.295
  sub67                      4.03       0.00       0.00       0.32       1.88       0.00       1.88        0.58    62.22   0.468
  sub68                      4.03       0.00       0.00       0.56       1.68       0.00       1.68        0.52    52.35   0.417
  sub69                      4.03       0.00       0.00       0.60       1.88       0.00       1.88        0.44    51.68   0.465
  sub70                      4.03       1.91       0.00       2.02       2.13       0.00       2.13        0.49    37.56   0.358
  sub71                      4.03       0.00       0.00       0.32       1.57       0.00       1.57        0.37    33.12   0.389
  sub72                      4.03       0.00       0.00       0.28       1.03       0.00       1.03        0.21    14.68   0.255
  sub73                      4.03       2.07       0.00       2.07       2.05       0.00       2.05        0.48    32.13   0.336
  sub74                      4.03       0.00       0.00       3.02       0.57       0.00       0.57        0.23    28.67   0.142
  
  
  ******************
  Node Depth Summary
  ******************
  
  ---------------------------------------------------------------------------------
                                 Average  Maximum  Maximum  Time of Max    Reported
                                   Depth    Depth      HGL   Occurrence   Max Depth
  Node                 Type       Meters   Meters   Meters  days hr:min      Meters
  ---------------------------------------------------------------------------------
  WS02001211           JUNCTION     0.57     0.75     5.59     0  06:11        0.75
  WS02001212           JUNCTION     0.31     0.45     5.52     0  06:11        0.45
  WS02001213           JUNCTION     0.53     0.69     5.45     0  06:12        0.69
  WS02003069           JUNCTION     0.36     0.49     5.08     0  04:34        0.49
  WS02003072           JUNCTION     0.43     0.56     4.93     0  04:34        0.56
  WS02003073           JUNCTION     0.25     0.34     4.40     0  04:35        0.34
  WS02003060           JUNCTION     0.32     0.44     5.37     0  04:33        0.44
  WS02003066           JUNCTION     0.21     0.28     5.83     0  03:09        0.28
  WS02003059           JUNCTION     0.60     0.74     5.43     0  04:33        0.74
  WS02003067           JUNCTION     0.52     0.67     5.99     0  03:09        0.67
  WS02004401           JUNCTION     0.60     0.79     6.79     0  03:06        0.79
  WS02004402           JUNCTION     0.63     0.81     6.77     0  03:06        0.81
  WS02004403           JUNCTION     0.65     0.83     6.76     0  03:06        0.83
  WS02004404           JUNCTION     0.73     0.91     6.76     0  03:06        0.91
  WS02004406           JUNCTION     0.74     0.91     6.74     0  03:07        0.91
  WS02004409           JUNCTION     0.41     0.60     6.37     0  03:08        0.60
  WS02004410           JUNCTION     0.44     0.62     6.34     0  03:08        0.62
  WS02004411           JUNCTION     0.46     0.63     6.31     0  03:08        0.63
  WS02004412           JUNCTION     0.48     0.65     6.29     0  03:09        0.65
  WS02004413           JUNCTION     0.63     0.81     6.28     0  03:09        0.81
  WS02004405           JUNCTION     0.72     0.90     6.75     0  03:07        0.90
  WS02006109           JUNCTION     0.67     0.88     7.50     0  03:02        0.88
  WS02006110           JUNCTION     0.67     0.86     7.45     0  03:02        0.86
  WS02006111           JUNCTION     0.19     0.26     6.97     0  03:03        0.26
  WS02006112           JUNCTION     0.75     0.97     6.85     0  03:05        0.97
  WS02006113           JUNCTION     0.29     0.42     7.31     0  03:03        0.41
  WS02006115           JUNCTION     0.48     0.68     6.82     0  03:06        0.68
  WS02006116           JUNCTION     0.57     0.76     6.80     0  03:06        0.76
  WS02006230           JUNCTION     0.60     0.91     7.66     0  03:02        0.91
  WS02006231           JUNCTION     0.40     0.61     7.74     0  03:02        0.61
  WS02006232           JUNCTION     0.53     0.76     7.80     0  03:02        0.76
  WS02006234           JUNCTION     0.44     0.71     7.86     0  03:02        0.71
  WS02006235           JUNCTION     0.47     0.74     7.91     0  03:01        0.74
  WS02006238           JUNCTION     0.49     0.77     7.92     0  03:01        0.77
  WS02006240           JUNCTION     0.38     0.70     8.00     0  03:01        0.70
  WS02006242           JUNCTION     0.44     0.77     8.04     0  03:01        0.77
  WS02006243           JUNCTION     0.32     0.66     8.08     0  03:01        0.66
  WS02006245           JUNCTION     0.31     0.63     8.12     0  03:01        0.63
  WS02006247           JUNCTION     0.33     0.64     8.14     0  03:01        0.64
  WS02006248           JUNCTION     0.28     0.57     8.16     0  03:01        0.57
  WS02006249           JUNCTION     0.32     0.59     8.19     0  03:00        0.59
  WS02006239           JUNCTION     0.44     0.75     7.96     0  03:01        0.75
  WS02006251           JUNCTION     0.31     0.61     8.28     0  03:00        0.61
  WS02006252           JUNCTION     0.28     0.58     8.83     0  03:00        0.58
  WS02006253           JUNCTION     0.34     0.64     8.28     0  03:00        0.64
  WS02006256           JUNCTION     0.88     1.13     8.07     0  03:02        1.13
  WS02004138           JUNCTION     0.12     0.19     7.44     0  06:10        0.19
  WS02004407           JUNCTION     0.19     0.27     6.58     0  03:07        0.27
  WS02006228           JUNCTION     0.65     0.90     7.55     0  03:02        0.90
  WS02006229           JUNCTION     0.62     0.89     7.58     0  03:02        0.89
  WS02006280           JUNCTION     0.05     0.10     8.37     0  02:30        0.10
  WS02006284           JUNCTION     0.34     0.42     8.82     0  02:29        0.42
  WS02006287           JUNCTION     0.07     0.15     9.10     0  02:29        0.15
  WSF200               JUNCTION     0.18     0.27     5.50     0  03:09        0.27
  HS02004901           JUNCTION     0.10     0.18    10.00     0  02:27        0.18
  HS02004881           JUNCTION     0.00     0.01     9.04     0  02:29        0.01
  HS02004876           JUNCTION     0.03     0.08     9.11     0  02:30        0.08
  HS02004870           JUNCTION     0.01     0.02     9.31     0  02:29        0.02
  HS02004862           JUNCTION     0.01     0.03     9.41     0  02:31        0.03
  HS02004856           JUNCTION     0.07     0.09     9.52     0  02:30        0.09
  HS02004852           JUNCTION     0.00     0.02     9.53     0  02:31        0.02
  HS02004848           JUNCTION     0.00     0.02     9.62     0  02:28        0.02
  HS02004842           JUNCTION     0.33     0.35     9.62     0  02:28        0.35
  HS02004837           JUNCTION     0.02     0.04     9.62     0  02:28        0.04
  HS02004830           JUNCTION     0.03     0.05     9.52     0  02:29        0.05
  HS02004824           JUNCTION     0.02     0.03     9.43     0  02:33        0.03
  HS02004817           JUNCTION     0.41     0.48     9.33     0  02:30        0.48
  HS02004807           JUNCTION     0.10     0.15     9.32     0  02:30        0.15
  HS02004802           JUNCTION     0.14     0.19     9.32     0  02:30        0.19
  HS02004799           JUNCTION     0.09     0.18     9.39     0  02:27        0.18
  HS02004792           JUNCTION     0.02     0.06     9.58     0  02:26        0.06
  HS02004788           JUNCTION     0.01     0.05     9.94     0  02:28        0.05
  HS02004785           JUNCTION     0.03     0.09     9.99     0  02:28        0.09
  HS02004777           JUNCTION     0.12     0.20    10.00     0  02:28        0.20
  HS02004770           JUNCTION     0.09     0.17    10.00     0  02:27        0.17
  HS02004480           JUNCTION     0.05     0.14     9.38     0  02:28        0.14
  HS02004479           JUNCTION     0.09     0.17     9.38     0  02:28        0.17
  HS02004478           JUNCTION     0.04     0.09     9.31     0  02:29        0.09
  YS02001745           JUNCTION     0.06     0.08     7.60     0  03:01        0.08
  YS02001748           JUNCTION     0.07     0.11     7.19     0  04:14        0.11
  YS02001751           JUNCTION     0.22     0.32     7.20     0  04:50        0.32
  YS02001754           JUNCTION     0.46     0.62     7.23     0  04:50        0.62
  YS02001762           JUNCTION     0.66     0.79     7.19     0  04:13        0.79
  YS02001765           JUNCTION     0.61     0.75     7.20     0  04:51        0.74
  YS02001767           JUNCTION     0.57     0.70     7.19     0  04:12        0.70
  YS02001770           JUNCTION     0.57     0.69     7.19     0  04:12        0.69
  YS02001774           JUNCTION     0.64     0.76     7.19     0  04:12        0.76
  YS02001779           JUNCTION     0.39     0.50     7.19     0  04:12        0.50
  YS02001882           JUNCTION     0.22     0.32     7.04     0  03:02        0.32
  YS02001884           JUNCTION     0.31     0.42     7.04     0  03:02        0.42
  YS02001759           JUNCTION     0.69     0.83     7.19     0  04:12        0.83
  YS02001887           JUNCTION     0.39     0.50     7.04     0  03:02        0.50
  YS02001890           JUNCTION     0.42     0.53     7.03     0  03:02        0.53
  YS02001898           JUNCTION     0.19     0.28     7.02     0  03:02        0.28
  YS02001901           JUNCTION     0.31     0.41     7.02     0  03:03        0.41
  YS02001904           JUNCTION     0.29     0.39     7.02     0  03:03        0.39
  YS02001907           JUNCTION     0.61     0.73     7.02     0  03:02        0.73
  YS02001910           JUNCTION     0.40     0.51     7.02     0  03:03        0.51
  YS02001915           JUNCTION     0.21     0.30     7.02     0  03:03        0.30
  YS02001918           JUNCTION     0.06     0.07     7.14     0  03:05        0.07
  YS02001619           JUNCTION     0.18     0.26     7.19     0  04:12        0.26
  YS02001629           JUNCTION     0.52     0.64     7.19     0  04:12        0.64
  YS02001641           JUNCTION     0.62     0.75     7.19     0  04:12        0.75
  YS02001644           JUNCTION     0.63     0.76     7.19     0  04:12        0.76
  YS02001652           JUNCTION     0.47     0.60     7.20     0  04:12        0.60
  YS02001655           JUNCTION     0.25     0.34     7.19     0  04:12        0.34
  YS02001920           JUNCTION     0.14     0.16     7.17     0  03:04        0.16
  YS02001923           JUNCTION     0.05     0.06     7.32     0  03:03        0.06
  YS02001926           JUNCTION     0.11     0.13     7.58     0  03:03        0.13
  YS02001929           JUNCTION     0.05     0.06     7.75     0  03:01        0.06
  YS02001658           JUNCTION     0.06     0.09     7.24     0  03:01        0.09
  YS02001661           JUNCTION     0.12     0.16     7.57     0  03:01        0.16
  YS02001664           JUNCTION     0.05     0.08     8.01     0  03:01        0.08
  YS02001622           JUNCTION     0.20     0.28     7.19     0  04:12        0.28
  YS02001633           JUNCTION     0.61     0.73     7.19     0  04:12        0.73
  YS02001649           JUNCTION     0.66     0.80     7.19     0  04:12        0.80
  YS02001757           JUNCTION     0.79     0.93     7.20     0  04:52        0.93
  YS02001895           JUNCTION     0.19     0.28     7.03     0  03:03        0.28
  YS02001625           JUNCTION     0.47     0.58     7.19     0  04:12        0.58
  YS02163301           JUNCTION     0.55     0.67     7.19     0  04:12        0.67
  YS02163601           JUNCTION     0.66     0.79     7.19     0  04:13        0.79
  YS02164001           JUNCTION     0.60     0.73     7.19     0  04:11        0.73
  YS02001647           JUNCTION     0.46     0.58     7.19     0  04:12        0.58
  YSB1154              JUNCTION     0.23     0.32     9.38     0  02:28        0.32
  YSB6556              JUNCTION     0.12     0.21     9.38     0  02:27        0.21
  YSB1174              JUNCTION     0.18     0.27     9.38     0  02:28        0.27
  YSB1171              JUNCTION     0.38     0.47     9.38     0  02:28        0.47
  YS02006553           JUNCTION     0.62     0.73     7.02     0  03:03        0.73
  YS02006561           JUNCTION     0.10     0.16     6.82     0  03:03        0.16
  YS02006556           JUNCTION     0.59     0.71     7.02     0  03:03        0.71
  YS02006558           JUNCTION     0.63     0.75     7.02     0  03:03        0.75
  YS02001783           JUNCTION     0.17     0.27     6.41     0  03:03        0.27
  YS02001784           JUNCTION     0.21     0.31     6.37     0  03:03        0.31
  YS02001786           JUNCTION     0.18     0.26     6.29     0  03:04        0.26
  YS02001788           JUNCTION     0.12     0.19     6.17     0  03:04        0.19
  YS02001790           JUNCTION     0.15     0.23     5.87     0  03:04        0.23
  YS02001791           JUNCTION     0.10     0.15     5.62     0  03:05        0.15
  YS02001793           JUNCTION     0.06     0.10     4.93     0  03:05        0.10
  WS02004139           JUNCTION     0.51     0.69     5.60     0  06:10        0.69
  WSC                  OUTFALL      0.25     0.34     1.01     0  04:36        0.34
  3                    OUTFALL      0.03     0.13     6.13     0  03:02        0.13
  4                    OUTFALL      0.00     0.09     7.09     0  03:00        0.09
  5                    OUTFALL      0.00     0.00     5.00     0  00:00        0.00
  JK-storage           STORAGE      0.20     3.00     3.80     0  00:10        3.00
  CC-storage           STORAGE      0.06     0.15     7.15     0  04:46        0.15
  XR-storage           STORAGE      7.49     7.72     5.72     0  02:12        7.72
  
  
  *******************
  Node Inflow Summary
  *******************
  
  -------------------------------------------------------------------------------------------------
                                  Maximum  Maximum                  Lateral       Total        Flow
                                  Lateral    Total  Time of Max      Inflow      Inflow     Balance
                                   Inflow   Inflow   Occurrence      Volume      Volume       Error
  Node                 Type           LPS      LPS  days hr:min    10^6 ltr    10^6 ltr     Percent
  -------------------------------------------------------------------------------------------------
  WS02001211           JUNCTION      7.35   375.33     0  06:10       0.207        4.51       0.673
  WS02001212           JUNCTION      0.00   366.47     0  06:11           0        4.48       0.385
  WS02001213           JUNCTION      0.00   362.97     0  06:11           0        4.47       0.387
  WS02003069           JUNCTION      0.32   707.89     0  04:33     0.00902        9.98       0.203
  WS02003072           JUNCTION      0.00   707.51     0  04:34           0        9.96       0.270
  WS02003073           JUNCTION      1.82   709.70     0  04:35      0.0514        9.98       0.291
  WS02003060           JUNCTION     16.53   706.58     0  04:33       0.466        9.99       0.197
  WS02003066           JUNCTION      0.00   450.17     0  03:09           0        5.11       0.057
  WS02003059           JUNCTION      0.00   359.89     0  06:12           0        4.45       0.721
  WS02003067           JUNCTION      0.00   450.12     0  03:09           0        5.12       0.132
  WS02004401           JUNCTION      0.00   455.71     0  03:04           0        5.28       0.288
  WS02004402           JUNCTION      0.00   454.52     0  03:04           0        5.27       0.282
  WS02004403           JUNCTION      0.00   453.81     0  03:04           0        5.25       0.265
  WS02004404           JUNCTION      0.16   453.46     0  03:05     0.00457        5.24       0.209
  WS02004406           JUNCTION      0.00   453.30     0  03:07           0        5.22       0.516
  WS02004409           JUNCTION      0.00   453.24     0  03:07           0        5.18       0.177
  WS02004410           JUNCTION      0.00   452.22     0  03:07           0        5.18       0.215
  WS02004411           JUNCTION      0.00   451.30     0  03:08           0        5.16       0.234
  WS02004412           JUNCTION      0.00   450.77     0  03:08           0        5.15       0.271
  WS02004413           JUNCTION      0.00   450.39     0  03:08           0        5.14       0.428
  WS02004405           JUNCTION      0.04   453.32     0  03:06     0.00107        5.23       0.315
  WS02006109           JUNCTION      1.23   458.48     0  03:02      0.0347        5.34       0.211
  WS02006110           JUNCTION      0.00   458.48     0  03:02           0        5.33       0.264
  WS02006111           JUNCTION      0.00   472.46     0  03:03           0        5.31       0.040
  WS02006112           JUNCTION      4.25   463.29     0  03:03      0.0155        5.33       0.427
  WS02006113           JUNCTION      0.00   458.59     0  03:03           0        5.32       0.091
  WS02006115           JUNCTION      0.00   459.57     0  03:03           0         5.3       0.241
  WS02006116           JUNCTION      0.00   457.27     0  03:04           0        5.29       0.212
  WS02006230           JUNCTION     10.28   385.18     0  03:02        0.29        4.72       0.142
  WS02006231           JUNCTION      0.00   375.66     0  03:01           0        4.44       0.142
  WS02006232           JUNCTION      0.00   375.68     0  03:01           0        4.45       0.217
  WS02006234           JUNCTION      0.00   376.23     0  03:01           0        4.45       0.041
  WS02006235           JUNCTION      0.00   376.33     0  03:01           0        4.49       0.147
  WS02006238           JUNCTION      0.00   313.90     0  04:21           0         2.9       0.103
  WS02006240           JUNCTION      0.00   330.03     0  04:21           0        2.86       0.154
  WS02006242           JUNCTION      0.00   336.32     0  04:21           0        2.86       0.233
  WS02006243           JUNCTION      0.00   340.35     0  04:21           0        2.84      -0.225
  WS02006245           JUNCTION      0.00   342.92     0  04:20           0        2.85       0.297
  WS02006247           JUNCTION      0.00   345.70     0  04:20           0        2.85       0.118
  WS02006248           JUNCTION      0.00   348.41     0  04:20           0        2.85      -0.039
  WS02006249           JUNCTION      0.00   402.57     0  03:00           0        2.89       0.305
  WS02006239           JUNCTION      0.00   321.49     0  04:21           0        2.88       0.027
  WS02006251           JUNCTION      0.08   406.73     0  03:00     0.00217        2.91       0.123
  WS02006252           JUNCTION      0.00   399.89     0  03:00           0        2.81       0.009
  WS02006253           JUNCTION      0.64    21.64     0  02:36     0.00201       0.104       1.339
  WS02006256           JUNCTION      0.00   339.52     0  05:01           0        2.39       0.075
  WS02004138           JUNCTION      0.00   379.92     0  04:30           0        4.33       0.086
  WS02004407           JUNCTION      0.00   453.26     0  03:07           0        5.19       0.080
  WS02006228           JUNCTION      0.00   457.23     0  03:02           0        5.32       0.162
  WS02006229           JUNCTION      0.00   457.22     0  03:02           0        5.33       0.159
  WS02006280           JUNCTION      0.00   103.06     0  02:30           0       0.614       0.012
  WS02006284           JUNCTION      0.10   103.06     0  02:29      0.0027       0.615       0.189
  WS02006287           JUNCTION      0.00   102.97     0  02:29           0       0.613       0.113
  WSF200               JUNCTION      0.00   450.16     0  03:09           0        5.11       0.046
  HS02004901           JUNCTION      5.25     5.25     0  02:18      0.0186      0.0188      10.317
  HS02004881           JUNCTION      2.13    17.99     0  02:29     0.00813      0.0838       0.198
  HS02004876           JUNCTION      3.44    16.09     0  02:28      0.0155      0.0762       0.686
  HS02004870           JUNCTION      3.78    12.71     0  02:28      0.0154      0.0608       0.175
  HS02004862           JUNCTION      3.26     9.15     0  02:29      0.0209      0.0456       0.367
  HS02004856           JUNCTION      2.80     5.91     0  02:28      0.0115      0.0262       5.797
  HS02004852           JUNCTION      0.00     3.26     0  02:29           0      0.0147       0.326
  HS02004848           JUNCTION      6.36     6.36     0  02:33      0.0361      0.0361       0.118
  HS02004842           JUNCTION      0.00     4.48     0  00:03           0      0.0344      60.773
  HS02004837           JUNCTION     12.44    15.39     0  02:27       0.206       0.227       0.358
  HS02004830           JUNCTION      0.15    15.54     0  02:28     0.00423       0.217       0.569
  HS02004824           JUNCTION      7.25    22.69     0  02:33      0.0474       0.264       0.205
  HS02004817           JUNCTION      0.60    23.29     0  02:33      0.0169        0.28       6.324
  HS02004807           JUNCTION      7.10    29.82     0  02:30      0.0283       0.292       1.470
  HS02004802           JUNCTION      0.00    29.90     0  02:32           0       0.287       1.431
  HS02004799           JUNCTION      5.48    62.31     0  02:26      0.0228       0.297       0.761
  HS02004792           JUNCTION     24.56    56.94     0  02:26       0.103       0.274       0.153
  HS02004788           JUNCTION      9.12    33.38     0  02:27      0.0788       0.172       0.229
  HS02004785           JUNCTION      0.15    24.50     0  02:26     0.00423      0.0957       0.503
  HS02004777           JUNCTION      0.03    24.64     0  02:24    0.000846      0.0958       5.701
  HS02004770           JUNCTION     20.65    25.26     0  02:21      0.0796      0.0966       3.317
  HS02004480           JUNCTION      0.00    73.39     0  02:28           0       0.342       0.197
  HS02004479           JUNCTION      0.00    11.25     0  02:29           0      0.0575       1.282
  HS02004478           JUNCTION      0.00   102.97     0  02:29           0       0.614       0.109
  YS02001745           JUNCTION     36.57    36.57     0  03:01       0.427       0.427       0.080
  YS02001748           JUNCTION      0.04    36.59     0  03:01     0.00127       0.428       0.043
  YS02001751           JUNCTION      0.01    82.10     0  05:03     0.00031        0.53       0.293
  YS02001754           JUNCTION      0.26   187.98     0  05:02     0.00733       0.845       1.276
  YS02001762           JUNCTION      0.00    51.76     0  03:05           0       0.538       2.600
  YS02001765           JUNCTION      0.00    64.71     0  05:00           0       0.529       2.804
  YS02001767           JUNCTION      0.54    53.04     0  03:05      0.0151       0.533       3.643
  YS02001770           JUNCTION     48.09    52.89     0  02:56       0.514       0.532       3.131
  YS02001774           JUNCTION      0.00    24.04     0  02:36           0      0.0721      25.326
  YS02001779           JUNCTION      0.01    11.23     0  02:36    0.000141      0.0399      14.408
  YS02001882           JUNCTION      0.00     1.95     0  02:22           0      0.0033      75.050
  YS02001884           JUNCTION      0.00     5.62     0  02:11           0      0.0135      46.885
  YS02001759           JUNCTION     47.23   102.94     0  03:06       0.483       0.994       1.594
  YS02001887           JUNCTION     62.67    62.67     0  03:01       0.594         0.6       1.104
  YS02001890           JUNCTION      0.00    62.19     0  03:00           0       0.582       1.255
  YS02001898           JUNCTION      0.00    61.82     0  03:01           0       0.571       0.318
  YS02001901           JUNCTION      0.00    61.93     0  03:03           0       0.571       0.867
  YS02001904           JUNCTION      0.00    61.68     0  03:03           0       0.571       0.811
  YS02001907           JUNCTION      0.00   111.82     0  03:03           0        1.21       1.767
  YS02001910           JUNCTION      0.00    50.42     0  03:02           0       0.654       1.458
  YS02001915           JUNCTION     33.14    50.37     0  03:01        0.37       0.658       0.587
  YS02001918           JUNCTION      0.00    17.54     0  03:04           0       0.289       0.279
  YS02001619           JUNCTION     32.10    32.10     0  03:01       0.364       0.364       0.147
  YS02001629           JUNCTION      0.00    33.90     0  02:43           0       0.348       1.604
  YS02001641           JUNCTION      0.00    68.86     0  03:11           0       0.735       1.709
  YS02001644           JUNCTION     34.68   100.65     0  03:10        0.41        1.13       1.354
  YS02001652           JUNCTION      0.00    54.71     0  05:00           0       0.468       1.949
  YS02001655           JUNCTION      0.15    44.36     0  03:01     0.00434       0.435       0.709
  YS02001920           JUNCTION      2.87    17.56     0  03:03      0.0809        0.29       0.578
  YS02001923           JUNCTION      0.04    14.69     0  03:03     0.00106        0.21       0.103
  YS02001926           JUNCTION      0.05    14.72     0  03:01     0.00147        0.21       0.747
  YS02001929           JUNCTION     14.68    14.68     0  03:01       0.209       0.209       0.097
  YS02001658           JUNCTION      0.00    44.22     0  03:01           0       0.426       0.044
  YS02001661           JUNCTION      0.00    44.24     0  03:01           0       0.427       0.169
  YS02001664           JUNCTION     44.25    44.25     0  03:01       0.427       0.427       0.034
  YS02001622           JUNCTION      0.00    32.88     0  02:53           0       0.363       0.678
  YS02001633           JUNCTION     35.25    69.22     0  02:44       0.423       0.758       2.417
  YS02001649           JUNCTION      0.00   149.57     0  03:09           0        1.54       1.523
  YS02001757           JUNCTION      0.00   324.54     0  04:23           0        3.12       2.203
  YS02001895           JUNCTION      0.00    61.93     0  03:01           0       0.574       0.533
  YS02001625           JUNCTION      0.00    34.77     0  02:53           0       0.361       4.149
  YS02163301           JUNCTION      0.00    34.83     0  02:44           0       0.349       3.535
  YS02163601           JUNCTION      0.11    68.15     0  03:01      0.0031       0.739       2.652
  YS02164001           JUNCTION      0.00    69.31     0  03:11           0        0.73       1.598
  YS02001647           JUNCTION      0.00   102.01     0  03:10           0         1.1       1.106
  YSB1154              JUNCTION      6.12     6.12     0  02:25      0.0276       0.029       5.238
  YSB6556              JUNCTION      0.00     6.09     0  02:27           0      0.0301       4.315
  YSB1174              JUNCTION      5.96     5.96     0  02:17      0.0202      0.0212       6.436
  YSB1171              JUNCTION      0.00    11.27     0  02:27           0      0.0569      12.495
  YS02006553           JUNCTION      0.00   111.94     0  03:05           0         1.2       1.153
  YS02006561           JUNCTION      0.00   163.77     0  03:03           0         1.7       0.030
  YS02006556           JUNCTION      0.00   112.10     0  03:05           0         1.2       0.825
  YS02006558           JUNCTION     53.23   163.80     0  03:03       0.541        1.72       0.248
  YS02001783           JUNCTION      0.00   163.77     0  03:03           0         1.7       0.070
  YS02001784           JUNCTION      1.06   164.82     0  03:03      0.0299        1.73       0.118
  YS02001786           JUNCTION      0.06   164.86     0  03:04     0.00159        1.72       0.115
  YS02001788           JUNCTION      0.07   164.92     0  03:04       0.002        1.72       0.064
  YS02001790           JUNCTION      0.15   165.06     0  03:04     0.00437        1.73       0.083
  YS02001791           JUNCTION      0.00   165.05     0  03:04           0        1.73       0.042
  YS02001793           JUNCTION      0.00   165.05     0  03:05           0        1.73       0.011
  WS02004139           JUNCTION      0.32   379.15     0  06:10     0.00905        4.34       0.737
  WSC                  OUTFALL       0.00   709.67     0  04:36           0        9.95       0.000
  3                    OUTFALL       0.00   249.22     0  03:02           0       0.765       0.000
  4                    OUTFALL       0.00    84.06     0  03:00           0      0.0326       0.000
  5                    OUTFALL       0.00     0.00     0  00:00           0           0       0.000 ltr
  JK-storage           STORAGE       0.00   165.05     0  03:05           0        1.88     -22.155
  CC-storage           STORAGE       0.00   262.70     0  03:07           0        2.74      -2.384
  XR-storage           STORAGE     260.45   260.45     0  03:01        6.35        6.95       0.000
  
  
  **********************
  Node Surcharge Summary
  **********************
  
  Surcharging occurs when water rises above the top of the highest conduit.
  ---------------------------------------------------------------------
                                               Max. Height   Min. Depth
                                   Hours       Above Crown    Below Rim
  Node                 Type      Surcharged         Meters       Meters
  ---------------------------------------------------------------------
  WS02006109           JUNCTION        0.26          0.062        1.758
  WS02006232           JUNCTION        0.23          0.057        1.423
  WS02006235           JUNCTION        0.11          0.034        1.256
  WS02006238           JUNCTION        0.14          0.053        1.377
  WS02006242           JUNCTION        0.09          0.042        0.778
  WS02006239           JUNCTION        0.04          0.008        1.282
  WS02006252           JUNCTION        0.38          0.184        0.916
  WS02006228           JUNCTION        0.25          0.071        2.129
  
  
  *********************
  Node Flooding Summary
  *********************
  
  Flooding refers to all water that overflows a node, whether it ponds or not.
  --------------------------------------------------------------------------
                                                             Total   Maximum
                                 Maximum   Time of Max       Flood    Ponded
                        Hours       Rate    Occurrence      Volume     Depth
  Node                 Flooded       LPS   days hr:min    10^6 ltr    Meters
  --------------------------------------------------------------------------
  XR-storage              4.13    247.41      0  02:30       1.699     0.000
  
  
  **********************
  Storage Volume Summary
  **********************
  
  --------------------------------------------------------------------------------------------------
                         Average     Avg  Evap Exfil       Maximum     Max    Time of Max    Maximum
                          Volume    Pcnt  Pcnt  Pcnt        Volume    Pcnt     Occurrence    Outflow
  Storage Unit           1000 m3    Full  Loss  Loss       1000 m3    Full    days hr:min        LPS
  --------------------------------------------------------------------------------------------------
  JK-storage               0.010       3     0     0         0.151      52       0  00:10     339.52
  CC-storage               0.157       1     0     0         0.427       3       0  04:46     399.89
  XR-storage               0.899      97     0     0         0.926     100       0  02:12     379.92
  
  
  ***********************
  Outfall Loading Summary
  ***********************
  
  -----------------------------------------------------------
                         Flow       Avg       Max       Total
                         Freq      Flow      Flow      Volume
  Outfall Node           Pcnt       LPS       LPS    10^6 ltr
  -----------------------------------------------------------
  WSC                  100.00    410.31    709.67       9.952
  3                     48.00     86.08    249.22       0.765
  4                      6.20     29.41     84.06       0.033
  5                      0.00      0.00      0.00       0.000
  -----------------------------------------------------------
  System                38.55    525.80    809.77      10.749
  
  
  ********************
  Link Flow Summary
  ********************
  
  -----------------------------------------------------------------------------
                                 Maximum  Time of Max   Maximum    Max/    Max/
                                  |Flow|   Occurrence   |Veloc|    Full    Full
  Link                 Type          LPS  days hr:min     m/sec    Flow   Depth
  -----------------------------------------------------------------------------
  WS02003066WSF200     CONDUIT    450.16     0  03:09      2.68    0.08    0.21
  WS02006287WS02006284 CONDUIT    102.97     0  02:29      1.27    0.05    0.16
  WS02006284WS02006280 CONDUIT    103.06     0  02:30      1.52    0.04    0.14
  WS02006280WS02006229 CONDUIT    103.06     0  02:30      2.44    0.02    0.10
  WS02006229WS02006228 CONDUIT    457.23     0  03:02      0.91    1.51    1.00
  WS02006256WS02006235 CONDUIT    149.95     0  00:15      2.14    1.59    1.00
  WS02006253WS02006251 CONDUIT     52.63     0  06:49      0.37    0.16    0.89
  WS02006252WS02006251 CONDUIT    399.93     0  03:00      3.18    1.47    1.00
  WS02006251WS02006249 CONDUIT    402.57     0  03:00      1.16    1.16    0.86
  WS02006249WS02006248 CONDUIT    348.41     0  04:20      1.12    1.91    0.82
  WS02006248WS02006247 CONDUIT    345.70     0  04:20      1.09    0.75    0.86
  WS02006247WS02006245 CONDUIT    342.92     0  04:20      1.06    2.72    0.90
  WS02006245WS02006243 CONDUIT    340.35     0  04:21      1.09    1.01    0.92
  WS02006243WS02006242 CONDUIT    336.32     0  04:21      0.98    0.72    0.97
  WS02006242WS02006240 CONDUIT    330.03     0  04:21      0.94    1.31    0.99
  WS02006240WS02006239 CONDUIT    321.49     0  04:21      0.98    1.01    1.00
  WS02006239WS02006238 CONDUIT    313.90     0  04:21      0.91    1.00    1.00
  WS02006238WS02006235 CONDUIT    313.01     0  04:21      0.89    0.70    1.00
  WS02006235WS02006234 CONDUIT    376.23     0  03:01      1.03    3.97    0.99
  WS02006234WS02006232 CONDUIT    375.68     0  03:01      0.98    0.76    1.00
  WS02006232WS02006231 CONDUIT    375.66     0  03:01      1.03    0.79    0.93
  WS02006231WS02006230 CONDUIT    374.90     0  03:02      1.33    5.69    0.82
  WS02006230WS02006229 CONDUIT    384.99     0  03:02      1.00    8.57    1.00
  WS02006228WS02006109 CONDUIT    457.25     0  03:02      0.91    2.00    1.00
  WS02006116WS02004401 CONDUIT    455.71     0  03:04      0.79    0.63    0.77
  WS02006115WS02006116 CONDUIT    457.27     0  03:04      0.92    0.59    0.69
  WS02006113WS02006111 CONDUIT    472.46     0  03:03      2.33    0.57    0.42
  WS02006112WS02006115 CONDUIT    459.57     0  03:03      0.67    0.27    0.82
  WS02006111WS02006112 CONDUIT    461.55     0  03:03      1.31    0.22    0.66
  WS02006110WS02006113 CONDUIT    458.59     0  03:03      1.12    0.42    0.76
  WS02006109WS02006110 CONDUIT    458.48     0  03:02      0.92    0.88    0.97
  WS02004411WS02004412 CONDUIT    450.77     0  03:08      0.85    0.64    0.64
  WS02004401WS02004402 CONDUIT    454.52     0  03:04      0.83    0.55    0.80
  WS02004413WS02003067 CONDUIT    450.12     0  03:09      1.01    0.19    0.55
  WS02004412WS02004413 CONDUIT    450.39     0  03:08      0.74    0.30    0.73
  WS02004410WS02004411 CONDUIT    451.30     0  03:08      0.87    0.62    0.63
  WS02004409WS02004410 CONDUIT    452.22     0  03:07      0.90    0.58    0.61
  WS02004407WS02004409 CONDUIT    453.24     0  03:07      1.38    0.16    0.44
  WS02004406WS02004407 CONDUIT    453.26     0  03:07      0.94    0.20    0.59
  WS02004405WS02004406 CONDUIT    453.30     0  03:07      0.77    0.89    0.91
  WS02004404WS02004405 CONDUIT    453.28     0  03:06      0.96    4.44    0.90
  WS02004403WS02004404 CONDUIT    453.30     0  03:05      0.85    0.33    0.87
  WS02004402WS02004403 CONDUIT    453.81     0  03:04      0.85    0.65    0.82
  WS02004139WS02001211 CONDUIT    367.98     0  06:10      0.69    0.47    0.56
  WS02004138WS02004139 CONDUIT    378.83     0  06:10      2.95    0.08    0.42
  WS02003067WS02003066 CONDUIT    450.17     0  03:09      1.09    0.14    0.39
  WS02001213WS02003059 CONDUIT    359.89     0  06:12      0.65    0.59    0.70
  WS02001212WS02001213 CONDUIT    362.97     0  06:11      1.20    0.56    0.41
  WS02001211WS02001212 CONDUIT    366.47     0  06:11      0.74    0.28    0.60
  WS02003072WS02003073 CONDUIT    707.88     0  04:35      1.56    1.53    0.42
  WS02003069WS02003072 CONDUIT    707.51     0  04:34      1.48    0.34    0.44
  WS02003060WS02003069 CONDUIT    707.57     0  04:33      1.74    0.28    0.39
  WS02003059WS02003060 CONDUIT    357.40     0  06:12      0.80    0.23    0.59
  HS02004901HS02004770 CONDUIT      4.80     0  02:25      0.03    0.02    0.25
  HS02004876HS02004881 CONDUIT     16.05     0  02:30      0.34    0.17    0.07
  HS02004870HS02004876 CONDUIT     12.70     0  02:29      0.24    0.01    0.08
  HS02004842HS02004848 CONDUIT      3.25     0  02:42      0.02    0.00    0.26
  HS02004837HS02004842 CONDUIT      4.48     0  00:03      0.42    0.00    0.27
  HS02004830HS02004837 CONDUIT     15.39     0  02:28      0.37    0.02    0.06
  HS02004824HS02004830 CONDUIT     15.54     0  02:29      0.41    0.02    0.05
  HS02004817HS02004824 CONDUIT     22.69     0  02:33      0.17    0.01    0.36
  HS02004770HS02004777 CONDUIT     24.61     0  02:24      0.14    0.05    0.26
  HS02004799HS02004480 CONDUIT     62.21     0  02:27      0.40    0.08    0.22
  HS02004792HS02004799 CONDUIT     56.91     0  02:26      0.47    0.03    0.17
  HS02004788HS02004792 CONDUIT     33.36     0  02:28      0.64    0.02    0.07
  HS02004785HS02004788 CONDUIT     24.42     0  02:28      0.36    0.18    0.10
  HS02004777HS02004785 CONDUIT     24.35     0  02:26      0.17    0.03    0.21
  HS02004480HS02004478 CONDUIT     73.36     0  02:28      0.71    0.31    0.15
  HS02004479HS02004480 CONDUIT     11.32     0  02:30      0.15    0.01    0.22
  HS02004862HS02004870 CONDUIT      9.13     0  02:30      0.34    0.01    0.04
  HS02004848HS02004852 CONDUIT      3.26     0  02:29      0.22    0.00    0.02
  HS02004856HS02004862 CONDUIT      5.89     0  02:30      0.24    0.01    0.03
  HS02004852HS02004856 CONDUIT      3.24     0  02:31      0.06    0.00    0.08
  HS02004802HS02004478 CONDUIT     30.01     0  02:34      0.22    0.03    0.20
  HS02004478WS02006287 CONDUIT    102.97     0  02:29      0.96    0.03    0.12
  HS02004817HS02004807 CONDUIT     23.48     0  02:35      0.07    0.01    0.45
  HS02004807HS02004802 CONDUIT     29.90     0  02:32      0.19    0.06    0.24
  YS02001759YS02001757 CONDUIT    101.32     0  03:06      0.14    0.07    0.88
  YS02001762YS02001759 CONDUIT     67.33     0  04:24      0.17    0.08    0.80
  YS02001765YS02001762 CONDUIT     51.76     0  03:05      0.22    0.05    0.77
  YS02001770YS02001767 CONDUIT     52.50     0  03:05      0.28    0.21    0.70
  YS02001774YS02001770 CONDUIT     24.04     0  02:36      0.12    0.02    0.71
  YS02001779YS02001774 CONDUIT     11.23     0  02:36      0.06    0.01    0.63
  YS02001649YS02001757 CONDUIT    148.28     0  03:04      0.21    0.09    0.87
  YS02001767YS02001765 CONDUIT     64.71     0  05:00      0.25    0.08    0.72
  YS02006561YS02001783 CONDUIT    163.77     0  03:03      1.50    0.08    0.27
  YS02001783YS02001784 CONDUIT    163.76     0  03:03      1.00    0.23    0.36
  YS02001784YS02001785 CONDUIT    164.80     0  03:04      1.03    0.38    0.35
  YS02001788YS02001790 CONDUIT    164.91     0  03:04      1.58    0.12    0.26
  YS02001790YS02001791 CONDUIT    165.05     0  03:04      1.80    0.18    0.24
  YS02001791YS02001793 CONDUIT    165.05     0  03:05      3.53    0.07    0.16
  YS02001910YS02001907 CONDUIT     50.42     0  03:05      0.49    0.03    0.62
  YS02001786YS02001788 CONDUIT    164.85     0  03:04      1.43    0.32    0.28
  YS02001915YS02001910 CONDUIT     50.42     0  03:02      0.44    0.03    0.41
  YS02001918YS02001915 CONDUIT     17.53     0  03:05      0.44    0.01    0.18
  YS02001923YS02001920 CONDUIT     14.69     0  03:03      0.31    0.01    0.11
  YS02001926YS02001923 CONDUIT     14.65     0  03:03      0.37    0.02    0.10
  YS02001929YS02001926 CONDUIT     14.67     0  03:01      0.38    0.01    0.10
  YS02001920YS02001918 CONDUIT     17.54     0  03:04      0.35    0.02    0.12
  YS02001629YS02163301 CONDUIT     34.83     0  02:44      0.08    0.04    0.65
  YS02001619YS02001622 CONDUIT     32.88     0  02:53      0.52    0.05    0.27
  YS02001622YS02001625 CONDUIT     34.77     0  02:53      0.17    0.02    0.43
  YS02001625YS02001629 CONDUIT     33.90     0  02:43      0.17    0.02    0.42
  YS02163301YS02001633 CONDUIT     37.56     0  02:44      0.07    0.04    0.70
  YS02163601YS02164001 CONDUIT     69.31     0  03:11      0.11    0.06    0.76
  YS02164001YS02001641 CONDUIT     68.86     0  03:11      0.11    0.09    0.74
  YS02001641YS02001644 CONDUIT     67.91     0  03:10      0.12    0.22    0.75
  YS02001647YS02001649 CONDUIT    101.15     0  03:12      0.18    0.05    0.69
  YS02006553YS02006556 CONDUIT    112.10     0  03:05      0.19    0.10    0.70
  YS02006556YS02006558 CONDUIT    112.18     0  03:05      0.18    0.09    0.73
  YSB6556YSB1171       CONDUIT      6.16     0  02:31      0.03    0.01    0.49
  YS02001907YS02006553 CONDUIT    111.94     0  03:05      0.16    0.13    0.80
  YS02006558YS02006561 CONDUIT    163.77     0  03:03      1.94    0.36    0.34
  YS02001633YS02163601 CONDUIT     68.04     0  03:01      0.12    0.07    0.75
  YS02001644YS02001647 CONDUIT    102.01     0  03:10      0.19    0.06    0.66
  YS02001745YS02001748 CONDUIT     36.55     0  03:01      1.18    0.01    0.08
  YS02001748YS02001751 CONDUIT     38.39     0  03:13      0.91    0.02    0.21
  YS02001751YS02001754 CONDUIT     89.61     0  05:02      0.82    0.04    0.42
  YS02001754YS02001757 CONDUIT    140.03     0  05:02      0.33    0.06    0.76
  YS02001882YS02001884 CONDUIT      1.95     0  02:22      0.06    0.00    0.34
  YS02001884YS02001887 CONDUIT      5.62     0  02:11      0.04    0.01    0.43
  YS02001890YS02001895 CONDUIT     61.93     0  03:01      0.21    0.03    0.41
  YS02001895YS02001898 CONDUIT     61.82     0  03:01      0.40    0.11    0.27
  YS02001898YS02001901 CONDUIT     61.93     0  03:03      0.26    0.04    0.35
  YS02001901YS02001904 CONDUIT     61.68     0  03:03      0.21    0.10    0.40
  YS02001904YS02001907 CONDUIT     61.93     0  03:03      0.14    0.02    0.56
  YS02001887YS02001890 CONDUIT     62.19     0  03:00      0.16    0.11    0.49
  YS02001652YS02001649 CONDUIT     53.32     0  03:04      0.24    0.03    0.70
  YS02001655YS02001652 CONDUIT     51.25     0  03:04      0.88    0.02    0.45
  YS02001658YS02001655 CONDUIT     44.21     0  03:01      1.04    0.02    0.21
  YS02001661YS02001658 CONDUIT     44.22     0  03:01      1.20    0.02    0.09
  YS02001664YS02001661 CONDUIT     44.24     0  03:01      0.81    0.01    0.12
  YSB1154YSB6556       CONDUIT      6.09     0  02:27      0.19    0.01    0.38
  YSB1174YSB1171       CONDUIT      5.54     0  02:20      0.03    0.01    0.49
  YSB1171HS02004479    CONDUIT     11.25     0  02:29      0.54    0.01    0.37
  HS02004881HS02006253 CONDUIT     17.98     0  02:30      1.23    0.00    0.22
  YS02001793JiankangQianchi CONDUIT    165.05     0  03:05     10.84    0.01    0.53
  YS02001757CaochengTiaoxuchi CONDUIT    262.70     0  03:07      0.75    0.12    0.54
  WSF200WS02003060     CONDUIT    450.21     0  03:09      1.79    0.10    0.28
  1                    CONDUIT    709.67     0  04:36      3.03    0.25    0.34
  2                    CONDUIT     84.06     0  03:00      4.62    0.20    0.30
  3                    CONDUIT    249.22     0  03:02      8.31    0.40    0.44
  4                    CONDUIT      0.00     0  00:00      0.00    0.00    0.00
  CC-Pump-1            PUMP       200.00     0  04:10              1.00
  CC-Pump-2            PUMP       200.00     0  02:47              1.00
  JK-Pump-1            PUMP       300.00     0  00:20              1.00
  JK-Pump-2            PUMP       300.00     0  05:00              1.00
  XR-Pump-1            PUMP        95.00     0  00:20              1.00
  XR-Pump-2            PUMP        95.00     0  00:00              1.00
  XR-Pump-3            PUMP        95.00     0  00:00              1.00
  XR-Pump-4            PUMP        95.00     0  01:50              1.00
  
  
  ***************************
  Flow Classification Summary
  ***************************
  
  -------------------------------------------------------------------------------------
                      Adjusted    ---------- Fraction of Time in Flow Class ---------- 
                       /Actual         Up    Down  Sub   Sup   Up    Down  Norm  Inlet 
  Conduit               Length    Dry  Dry   Dry   Crit  Crit  Crit  Crit  Ltd   Ctrl  
  -------------------------------------------------------------------------------------
  WS02003066WSF200        1.00   0.06  0.00  0.00  0.00  0.94  0.00  0.00  0.81  0.00
  WS02006287WS02006284    1.00   0.05  0.02  0.00  0.72  0.21  0.00  0.00  0.81  0.00
  WS02006284WS02006280    1.00   0.05  0.00  0.00  0.00  0.00  0.00  0.95  0.00  0.00
  WS02006280WS02006229    1.00   0.05  0.00  0.00  0.00  0.00  0.00  0.95  0.00  0.00
  WS02006229WS02006228    1.00   0.00  0.00  0.00  1.00  0.00  0.00  0.00  0.00  0.00
  WS02006256WS02006235    1.00   0.00  0.00  0.00  1.00  0.00  0.00  0.00  0.00  0.00
  WS02006253WS02006251    1.00   0.03  0.02  0.00  0.95  0.00  0.00  0.00  0.00  0.00
  WS02006252WS02006251    1.00   0.11  0.00  0.00  0.00  0.00  0.89  0.00  0.00  0.00
  WS02006251WS02006249    1.00   0.00  0.00  0.00  1.00  0.00  0.00  0.00  0.35  0.00
  WS02006249WS02006248    1.00   0.00  0.00  0.00  0.83  0.00  0.17  0.00  0.00  0.00
  WS02006248WS02006247    1.00   0.00  0.00  0.00  0.97  0.00  0.00  0.03  0.26  0.00
  WS02006247WS02006245    1.00   0.01  0.00  0.00  0.97  0.00  0.00  0.02  0.00  0.00
  WS02006245WS02006243    1.00   0.01  0.00  0.00  0.93  0.00  0.00  0.06  0.03  0.00
  WS02006243WS02006242    1.00   0.01  0.00  0.00  0.99  0.00  0.00  0.00  0.30  0.00
  WS02006242WS02006240    1.00   0.01  0.00  0.00  0.99  0.00  0.00  0.00  0.00  0.00
  WS02006240WS02006239    1.00   0.01  0.00  0.00  0.95  0.00  0.00  0.05  0.01  0.00
  WS02006239WS02006238    1.00   0.01  0.00  0.00  0.99  0.00  0.00  0.00  0.04  0.00
  WS02006238WS02006235    1.00   0.00  0.00  0.00  0.99  0.00  0.00  0.00  0.00  0.00
  WS02006235WS02006234    1.00   0.00  0.00  0.00  0.95  0.00  0.05  0.00  0.00  0.00
  WS02006234WS02006232    1.00   0.01  0.00  0.00  0.99  0.00  0.00  0.00  0.07  0.00
  WS02006232WS02006231    1.00   0.01  0.00  0.00  0.99  0.00  0.00  0.00  0.00  0.00
  WS02006231WS02006230    1.00   0.01  0.00  0.00  0.19  0.00  0.80  0.00  0.00  0.00
  WS02006230WS02006229    1.00   0.00  0.00  0.00  0.99  0.00  0.00  0.01  0.01  0.00
  WS02006228WS02006109    1.00   0.00  0.00  0.00  1.00  0.00  0.00  0.00  0.01  0.00
  WS02006116WS02004401    1.00   0.03  0.00  0.00  0.97  0.00  0.00  0.00  0.00  0.00
  WS02006115WS02006116    1.00   0.03  0.00  0.00  0.96  0.00  0.00  0.01  0.00  0.00
  WS02006113WS02006111    1.00   0.02  0.00  0.00  0.00  0.98  0.00  0.00  0.16  0.00
  WS02006112WS02006115    1.00   0.02  0.01  0.00  0.97  0.00  0.01  0.00  0.00  0.00
  WS02006111WS02006112    1.00   0.02  0.00  0.00  0.97  0.00  0.00  0.00  0.95  0.00
  WS02006110WS02006113    1.00   0.00  0.01  0.00  0.98  0.00  0.00  0.00  0.00  0.00
  WS02006109WS02006110    1.00   0.00  0.00  0.00  0.99  0.00  0.00  0.00  0.00  0.00
  WS02004411WS02004412    1.00   0.04  0.00  0.00  0.96  0.00  0.00  0.00  0.00  0.00
  WS02004401WS02004402    1.00   0.03  0.00  0.00  0.97  0.00  0.00  0.00  0.00  0.00
  WS02004413WS02003067    1.00   0.04  0.01  0.00  0.00  0.00  0.94  0.00  0.00  0.00
  WS02004412WS02004413    1.00   0.04  0.00  0.00  0.96  0.00  0.00  0.00  0.01  0.00
  WS02004410WS02004411    1.00   0.04  0.00  0.00  0.96  0.00  0.00  0.00  0.01  0.00
  WS02004409WS02004410    1.00   0.04  0.00  0.00  0.96  0.00  0.00  0.00  0.03  0.00
  WS02004407WS02004409    1.00   0.04  0.00  0.00  0.96  0.00  0.00  0.00  0.91  0.00
  WS02004406WS02004407    1.00   0.00  0.04  0.00  0.96  0.00  0.00  0.00  0.00  0.00
  WS02004405WS02004406    1.00   0.00  0.00  0.00  1.00  0.00  0.00  0.00  0.03  0.00
  WS02004404WS02004405    1.00   0.00  0.00  0.00  1.00  0.00  0.00  0.00  0.00  0.00
  WS02004403WS02004404    1.00   0.00  0.03  0.00  0.97  0.00  0.00  0.00  0.00  0.00
  WS02004402WS02004403    1.00   0.03  0.00  0.00  0.97  0.00  0.00  0.00  0.00  0.00
  WS02004139WS02001211    1.00   0.00  0.00  0.00  1.00  0.00  0.00  0.00  0.00  0.00
  WS02004138WS02004139    1.00   0.00  0.00  0.00  1.00  0.00  0.00  0.00  1.00  0.00
  WS02003067WS02003066    1.00   0.06  0.01  0.00  0.94  0.00  0.00  0.00  0.00  0.00
  WS02001213WS02003059    1.00   0.00  0.00  0.00  1.00  0.00  0.00  0.00  0.00  0.00
  WS02001212WS02001213    1.00   0.00  0.00  0.00  0.55  0.00  0.45  0.00  0.00  0.00
  WS02001211WS02001212    1.00   0.00  0.00  0.00  1.00  0.00  0.00  0.00  0.00  0.00
  WS02003072WS02003073    1.00   0.00  0.00  0.00  0.00  0.00  0.00  1.00  0.00  0.00
  WS02003069WS02003072    1.00   0.00  0.00  0.00  1.00  0.00  0.00  0.00  0.50  0.00
  WS02003060WS02003069    1.00   0.00  0.00  0.00  0.99  0.01  0.00  0.00  0.28  0.00
  WS02003059WS02003060    1.00   0.00  0.00  0.00  1.00  0.00  0.00  0.00  0.01  0.00
  HS02004901HS02004770    1.00   0.05  0.00  0.00  0.95  0.00  0.00  0.00  0.03  0.00
  HS02004876HS02004881    1.00   0.00  0.00  0.00  1.00  0.00  0.00  0.00  0.00  0.00
  HS02004870HS02004876    1.00   0.00  0.00  0.00  1.00  0.00  0.00  0.00  0.95  0.00
  HS02004842HS02004848    1.00   0.00  0.05  0.00  0.95  0.00  0.00  0.00  0.70  0.00
  HS02004837HS02004842    1.00   0.00  0.00  0.00  1.00  0.00  0.00  0.00  0.11  0.00
  HS02004830HS02004837    1.00   0.00  0.00  0.00  1.00  0.00  0.00  0.00  0.99  0.00
  HS02004824HS02004830    1.00   0.00  0.00  0.00  1.00  0.00  0.00  0.00  0.00  0.00
  HS02004817HS02004824    1.00   0.00  0.00  0.00  1.00  0.00  0.00  0.00  1.00  0.00
  HS02004770HS02004777    1.00   0.00  0.05  0.00  0.95  0.00  0.00  0.00  0.08  0.00
  HS02004799HS02004480    1.00   0.00  0.01  0.00  0.93  0.00  0.06  0.00  0.00  0.00
  HS02004792HS02004799    1.00   0.00  0.00  0.00  1.00  0.00  0.00  0.00  0.98  0.00
  HS02004788HS02004792    1.00   0.00  0.00  0.00  1.00  0.00  0.00  0.00  0.98  0.00
  HS02004785HS02004788    1.00   0.00  0.00  0.00  1.00  0.00  0.00  0.00  0.00  0.00
  HS02004777HS02004785    1.00   0.00  0.00  0.00  1.00  0.00  0.00  0.00  0.22  0.00
  HS02004480HS02004478    1.00   0.06  0.00  0.00  0.75  0.00  0.00  0.19  0.00  0.00
  HS02004479HS02004480    1.00   0.01  0.00  0.00  0.99  0.00  0.00  0.00  0.16  0.00
  HS02004862HS02004870    1.00   0.00  0.00  0.00  1.00  0.00  0.00  0.00  0.06  0.00
  HS02004848HS02004852    1.00   0.05  0.00  0.00  0.95  0.00  0.00  0.00  0.68  0.00
  HS02004856HS02004862    1.00   0.00  0.08  0.00  0.92  0.00  0.00  0.00  0.73  0.00
  HS02004852HS02004856    1.00   0.05  0.01  0.00  0.94  0.00  0.00  0.00  0.82  0.00
  HS02004802HS02004478    1.00   0.05  0.01  0.00  0.94  0.00  0.00  0.00  0.00  0.00
  HS02004478WS02006287    1.00   0.06  0.00  0.00  0.93  0.00  0.00  0.00  0.81  0.00
  HS02004817HS02004807    1.00   0.00  0.05  0.00  0.95  0.00  0.00  0.00  0.00  0.00
  HS02004807HS02004802    1.00   0.05  0.00  0.00  0.94  0.00  0.00  0.00  0.01  0.00
  YS02001759YS02001757    1.00   0.00  0.00  0.00  1.00  0.00  0.00  0.00  0.17  0.00
  YS02001762YS02001759    1.00   0.00  0.00  0.00  1.00  0.00  0.00  0.00  0.05  0.00
  YS02001765YS02001762    1.00   0.00  0.00  0.00  1.00  0.00  0.00  0.00  0.23  0.00
  YS02001770YS02001767    1.00   0.00  0.00  0.00  1.00  0.00  0.00  0.00  0.00  0.00
  YS02001774YS02001770    1.00   0.00  0.06  0.00  0.94  0.00  0.00  0.00  0.07  0.00
  YS02001779YS02001774    1.00   0.00  0.00  0.00  1.00  0.00  0.00  0.00  0.28  0.00
  YS02001649YS02001757    1.00   0.00  0.00  0.00  1.00  0.00  0.00  0.00  0.19  0.00
  YS02001767YS02001765    1.00   0.00  0.00  0.00  1.00  0.00  0.00  0.00  0.01  0.00
  YS02006561YS02001783    1.00   0.08  0.00  0.00  0.00  0.92  0.00  0.00  0.72  0.00
  YS02001783YS02001784    1.00   0.00  0.08  0.00  0.92  0.00  0.00  0.00  0.12  0.00
  YS02001784YS02001785    1.00   0.00  0.00  0.00  1.00  0.00  0.00  0.00  0.27  0.00
  YS02001788YS02001790    1.00   0.00  0.00  0.00  0.09  0.91  0.00  0.00  0.99  0.00
  YS02001790YS02001791    1.00   0.00  0.00  0.00  0.00  1.00  0.00  0.00  0.34  0.00
  YS02001791YS02001793    1.00   0.00  0.00  0.00  0.00  1.00  0.00  0.00  0.00  0.00
  YS02001910YS02001907    1.00   0.00  0.00  0.00  0.99  0.00  0.00  0.01  0.13  0.00
  YS02001786YS02001788    1.00   0.00  0.00  0.00  0.11  0.89  0.00  0.00  0.00  0.00
  YS02001915YS02001910    1.00   0.00  0.00  0.00  1.00  0.00  0.00  0.00  0.25  0.00
  YS02001918YS02001915    1.00   0.00  0.00  0.00  1.00  0.00  0.00  0.00  0.80  0.00
  YS02001923YS02001920    1.00   0.00  0.00  0.00  1.00  0.00  0.00  0.00  1.00  0.00
  YS02001926YS02001923    1.00   0.00  0.04  0.00  0.00  0.00  0.96  0.00  0.00  0.00
  YS02001929YS02001926    1.00   0.00  0.05  0.00  0.95  0.00  0.00  0.00  0.86  0.00
  YS02001920YS02001918    1.00   0.00  0.00  0.00  1.00  0.00  0.00  0.00  0.00  0.00
  YS02001629YS02163301    1.00   0.07  0.00  0.00  0.92  0.00  0.00  0.00  0.00  0.00
  YS02001619YS02001622    1.00   0.05  0.00  0.00  0.95  0.00  0.00  0.00  0.00  0.00
  YS02001622YS02001625    1.00   0.05  0.00  0.00  0.95  0.00  0.00  0.00  0.15  0.00
  YS02001625YS02001629    1.00   0.05  0.03  0.00  0.89  0.00  0.02  0.00  0.00  0.00
  YS02163301YS02001633    1.00   0.00  0.07  0.00  0.93  0.00  0.00  0.00  0.00  0.00
  YS02163601YS02164001    1.00   0.00  0.04  0.00  0.96  0.00  0.00  0.00  0.00  0.00
  YS02164001YS02001641    1.00   0.00  0.04  0.00  0.96  0.00  0.00  0.00  0.07  0.00
  YS02001641YS02001644    1.00   0.00  0.00  0.00  1.00  0.00  0.00  0.00  0.00  0.00
  YS02001647YS02001649    1.00   0.00  0.08  0.00  0.92  0.00  0.00  0.00  0.01  0.00
  YS02006553YS02006556    1.00   0.00  0.00  0.00  1.00  0.00  0.00  0.00  0.03  0.00
  YS02006556YS02006558    1.00   0.00  0.00  0.00  1.00  0.00  0.00  0.00  0.00  0.00
  YSB6556YSB1171          1.00   0.02  0.03  0.00  0.95  0.00  0.00  0.00  0.00  0.00
  YS02001907YS02006553    1.00   0.00  0.00  0.00  0.99  0.00  0.00  0.00  0.00  0.00
  YS02006558YS02006561    1.00   0.08  0.00  0.00  0.00  0.92  0.00  0.00  0.71  0.00
  YS02001633YS02163601    1.00   0.00  0.00  0.00  1.00  0.00  0.00  0.00  0.20  0.00
  YS02001644YS02001647    1.00   0.00  0.08  0.00  0.92  0.00  0.00  0.00  0.00  0.00
  YS02001745YS02001748    1.00   0.00  0.00  0.00  0.00  0.00  0.00  1.00  0.00  0.00
  YS02001748YS02001751    1.00   0.00  0.00  0.00  0.97  0.03  0.00  0.00  0.67  0.00
  YS02001751YS02001754    1.00   0.00  0.00  0.00  0.91  0.00  0.00  0.09  0.03  0.00
  YS02001754YS02001757    1.00   0.00  0.00  0.00  1.00  0.00  0.00  0.00  0.28  0.00
  YS02001882YS02001884    1.00   0.07  0.00  0.00  0.93  0.00  0.00  0.00  0.00  0.00
  YS02001884YS02001887    1.00   0.04  0.01  0.00  0.95  0.00  0.00  0.00  0.00  0.00
  YS02001890YS02001895    1.00   0.00  0.08  0.00  0.92  0.00  0.00  0.00  0.00  0.00
  YS02001895YS02001898    1.00   0.08  0.00  0.00  0.91  0.00  0.01  0.00  0.00  0.00
  YS02001898YS02001901    1.00   0.07  0.01  0.00  0.92  0.00  0.00  0.00  0.02  0.00
  YS02001901YS02001904    1.00   0.07  0.00  0.00  0.93  0.00  0.00  0.00  0.00  0.00
  YS02001904YS02001907    1.00   0.00  0.07  0.00  0.93  0.00  0.00  0.00  0.00  0.00
  YS02001887YS02001890    1.00   0.00  0.00  0.00  0.99  0.00  0.01  0.00  0.00  0.00
  YS02001652YS02001649    1.00   0.00  0.00  0.00  1.00  0.00  0.00  0.00  0.27  0.00
  YS02001655YS02001652    1.00   0.00  0.00  0.00  0.91  0.00  0.00  0.09  0.03  0.00
  YS02001658YS02001655    1.00   0.00  0.07  0.00  0.90  0.03  0.00  0.00  0.79  0.00
  YS02001661YS02001658    1.00   0.07  0.00  0.00  0.00  0.93  0.00  0.00  0.72  0.00
  YS02001664YS02001661    1.00   0.05  0.00  0.00  0.95  0.00  0.00  0.00  0.86  0.00
  YSB1154YSB6556          1.00   0.05  0.00  0.00  0.95  0.00  0.00  0.00  0.02  0.00
  YSB1174YSB1171          1.00   0.03  0.01  0.00  0.96  0.00  0.00  0.00  0.00  0.00
  YSB1171HS02004479       1.00   0.01  0.00  0.00  0.97  0.00  0.00  0.02  0.13  0.00
  HS02004881HS02006253    1.00   0.03  0.00  0.00  0.58  0.02  0.00  0.36  0.39  0.00
  YS02001793JiankangQianchi    1.00   0.00  0.00  0.00  0.21  0.79  0.00  0.00  0.30  0.00
  YS02001757CaochengTiaoxuchi    1.00   0.00  0.11  0.00  0.89  0.00  0.00  0.00  0.00  0.00
  WSF200WS02003060        1.00   0.00  0.06  0.00  0.53  0.41  0.00  0.00  0.34  0.00
  1                       1.00   0.00  0.00  0.00  0.00  1.00  0.00  0.00  0.38  0.00
  2                       1.00   0.94  0.00  0.00  0.00  0.06  0.00  0.00  0.02  0.00
  3                       1.00   0.52  0.00  0.00  0.00  0.48  0.00  0.00  0.54  0.00
  4                       1.00   1.00  0.00  0.00  0.00  0.00  0.00  0.00  0.00  0.00
  
  
  *************************
  Conduit Surcharge Summary
  *************************
  
  ----------------------------------------------------------------------------
                                                           Hours        Hours 
                         --------- Hours Full --------   Above Full   Capacity
  Conduit                Both Ends  Upstream  Dnstream   Normal Flow   Limited
  ----------------------------------------------------------------------------
  WS02006229WS02006228        0.25      0.27      0.25      1.70         0.25
  WS02006256WS02006235        5.24      5.24      7.07      2.58         0.01
  WS02006252WS02006251        0.14      0.14      0.38      0.32         0.01
  WS02006251WS02006249        0.01      0.01      0.01      0.14         0.01
  WS02006249WS02006248        0.01      0.01      0.01      2.68         0.01
  WS02006247WS02006245        0.01      0.01      0.01      3.20         0.01
  WS02006245WS02006243        0.01      0.01      0.01      0.01         0.01
  WS02006243WS02006242        0.01      0.01      0.09      0.01         0.01
  WS02006242WS02006240        0.01      0.01      0.13      0.36         0.01
  WS02006240WS02006239        0.02      0.02      0.04      0.02         0.01
  WS02006239WS02006238        0.13      0.13      0.14      0.02         0.01
  WS02006238WS02006235        0.13      0.13      0.18      0.01         0.01
  WS02006235WS02006234        0.01      0.01      0.11      5.12         0.01
  WS02006234WS02006232        0.05      0.05      0.23      0.01         0.01
  WS02006232WS02006231        0.01      0.01      0.23      0.01         0.01
  WS02006231WS02006230        0.01      0.01      0.01      5.46         0.01
  WS02006230WS02006229        0.54      1.28      0.54      5.67         0.54
  WS02006228WS02006109        0.26      0.44      0.26      3.36         0.26
  WS02006111WS02006112        0.01      0.01      2.24      0.01         0.01
  WS02006110WS02006113        0.01      0.01      0.35      0.01         0.01
  WS02006109WS02006110        0.01      0.01      0.44      0.01         0.01
  WS02004404WS02004405        0.01      0.01      0.01      5.30         0.01
  WS02003072WS02003073        0.01      0.01      0.01      2.05         0.01
  YS02001793JiankangQianchi        0.01      0.01      0.59      0.01         0.01
  
  
  ***************
  Pumping Summary
  ***************
  
  ---------------------------------------------------------------------------------------------------------
                                                  Min       Avg       Max     Total     Power    % Time Off
                        Percent   Number of      Flow      Flow      Flow    Volume     Usage    Pump Curve
  Pump                 Utilized   Start-Ups       LPS       LPS       LPS  10^6 ltr     Kw-hr    Low   High
  ---------------------------------------------------------------------------------------------------------
  CC-Pump-1               24.64           5      0.00    127.84    200.00     0.850      3.51    0.0  100.0
  CC-Pump-2               52.31           4      0.00    141.74    200.00     1.959      8.20    0.0  100.0
  JK-Pump-1               63.80           6      0.00     92.85    300.00     1.262     23.58    0.0    0.0
  JK-Pump-2               61.70           6      0.00     84.02    300.00     1.127     21.39    0.0    0.0
  XR-Pump-1               72.34           9      0.00     63.50     95.00     1.283      7.76    0.0    0.0
  XR-Pump-2               53.19           8      0.00     54.08     95.00     0.827      5.24    0.0    0.0
  XR-Pump-3               59.55           8      0.00     62.53     95.00     1.112      7.87    0.0    0.0
  XR-Pump-4               70.22           8      0.00     57.41     95.00     1.111      6.46    0.0    0.0
  

  Analysis begun on:  Thu Jan  6 00:08:17 2022
  Analysis ended on:  Thu Jan  6 00:08:19 2022
  Total elapsed time: 00:00:02