
  EPA STORM WATER MANAGEMENT MODEL - VERSION 5.1 (Build 5.3.0.dev0)
  --------------------------------------------------------------

  WARNING 04: minimum elevation drop used for Conduit WS02004404WS02004405
  WARNING 03: negative offset ignored for Link YS02001904YS02001907
  
  *********************************************************
  NOTE: The summary statistics displayed in this report are
  based on results found at every computational time step,  
  not just on results from each reporting time step.
  *********************************************************
  
  ****************
  Analysis Options
  ****************
  Flow Units ............... LPS
  Process Models:
    Rainfall/Runoff ........ YES
    RDII ................... NO
    Snowmelt ............... NO
    Groundwater ............ NO
    Flow Routing ........... YES
    Ponding Allowed ........ NO
    Water Quality .......... NO
  Infiltration Method ...... HORTON
  Flow Routing Method ...... DYNWAVE
  Surcharge Method ......... EXTRAN
  Starting Date ............ 08/28/2015 08:00:00
  Ending Date .............. 08/28/2015 15:50:00
  Antecedent Dry Days ...... 8.0
  Report Time Step ......... 00:01:00
  Wet Time Step ............ 00:01:00
  Dry Time Step ............ 00:01:00
  Routing Time Step ........ 5.00 sec
  Variable Time Step ....... YES
  Maximum Trials ........... 8
  Number of Threads ........ 4
  Head Tolerance ........... 0.001500 m
  
  
  **************************        Volume         Depth
  Runoff Quantity Continuity     hectare-m            mm
  **************************     ---------       -------
  Total Precipitation ......         2.691         5.892
  Evaporation Loss .........         0.000         0.000
  Infiltration Loss ........         0.676         1.480
  Surface Runoff ...........         1.133         2.480
  Final Storage ............         0.883         1.933
  Continuity Error (%) .....        -0.018
  
  
  **************************        Volume        Volume
  Flow Routing Continuity        hectare-m      10^6 ltr
  **************************     ---------     ---------
  Dry Weather Inflow .......         0.616         6.165
  Wet Weather Inflow .......         1.132        11.321
  Groundwater Inflow .......         0.000         0.000
  RDII Inflow ..............         0.000         0.000
  External Inflow ..........         0.102         1.024
  External Outflow .........         1.303        13.029
  Flooding Loss ............         0.241         2.415
  Evaporation Loss .........         0.000         0.000
  Exfiltration Loss ........         0.000         0.000
  Initial Stored Volume ....         0.076         0.761
  Final Stored Volume ......         0.441         4.411
  Continuity Error (%) .....        -3.033
  
  
  *************************
  Highest Continuity Errors
  *************************
  Node HS02004842 (28.52%)
  Node YS02001884 (22.90%)
  Node JK-storage (-16.47%)
  Node YS02001774 (16.30%)
  Node YSB1171 (6.99%)
  
  
  ***************************
  Time-Step Critical Elements
  ***************************
  Link WS02006252WS02006251 (62.43%)
  Link 3 (27.83%)
  Link WS02006238WS02006235 (2.89%)
  Link WS02006280WS02006229 (2.28%)
  
  
  ********************************
  Highest Flow Instability Indexes
  ********************************
  Link WS02006113WS02006111 (46)
  Link WS02006111WS02006112 (19)
  Link YS02006558YS02006561 (13)
  Link YS02001629YS02163301 (8)
  Link YS02163301YS02001633 (7)
  
  
  *************************
  Routing Time Step Summary
  *************************
  Minimum Time Step           :     0.50 sec
  Average Time Step           :     0.95 sec
  Maximum Time Step           :     5.00 sec
  Percent in Steady State     :    -0.00
  Average Iterations per Step :     2.52
  Percent Not Converging      :     6.01
  
  
  ***************************
  Subcatchment Runoff Summary
  ***************************
  
  ------------------------------------------------------------------------------------------------------------------------------
                            Total      Total      Total      Total     Imperv       Perv      Total       Total     Peak  Runoff
                           Precip      Runon       Evap      Infil     Runoff     Runoff     Runoff      Runoff   Runoff   Coeff
  Subcatchment                 mm         mm         mm         mm         mm         mm         mm    10^6 ltr      LPS
  ------------------------------------------------------------------------------------------------------------------------------
  sub0                       5.89       0.00       0.00       0.41       4.21       0.00       4.21        0.00     1.47   0.715
  sub1                       5.89       0.00       0.00       0.65       3.99       0.00       3.99        0.03     7.65   0.677
  sub2                       5.89       0.00       0.00       2.18       2.81       0.00       2.81        0.03     6.74   0.476
  sub3                       5.89       0.00       0.00       2.18       2.77       0.00       2.77        0.06    13.82   0.470
  sub4                       5.89       0.00       0.00       0.65       3.85       0.00       3.85        0.08    15.45   0.654
  sub5                       5.89       0.00       0.00       0.41       4.17       0.00       4.17        0.05    13.60   0.707
  sub7                       5.89       0.00       0.00       0.53       4.11       0.00       4.11        0.01     4.82   0.697
  sub8                       5.89       0.00       0.00       0.53       4.10       0.00       4.10        0.03     8.49   0.696
  sub9                       5.89       0.00       0.00       0.53       4.10       0.00       4.10        0.02     6.29   0.695
  sub10                      5.89       0.00       0.00       0.47       4.13       0.00       4.13        0.05    13.58   0.701
  sub11                      5.89       0.00       0.00       0.47       4.15       0.00       4.15        0.05    15.97   0.704
  sub12                      5.89       0.00       0.00       0.77       3.94       0.00       3.94        0.03    13.59   0.668
  sub14                      5.89       0.00       0.00       0.53       4.09       0.00       4.09        0.04    12.29   0.695
  sub15                      5.89       0.00       0.00       1.77       3.15       0.00       3.15        0.05    16.66   0.534
  sub16                      5.89       0.00       0.00       1.94       3.03       0.00       3.03        0.03    11.93   0.514
  sub17                      5.89       0.00       0.00       1.89       3.07       0.00       3.07        0.03     9.64   0.522
  sub22                      5.89       0.00       0.00       2.53       2.57       0.00       2.57        0.16    54.70   0.436
  sub23                      5.89       0.00       0.00       2.18       2.84       0.00       2.84        0.14    46.61   0.482
  sub60                      5.89       0.00       0.00       0.71       2.76       0.00       2.76        0.84    76.77   0.469
  sub61                      5.89       0.00       0.00       1.00       2.95       0.00       2.95        0.91    96.90   0.501
  sub62                      5.89       0.00       0.00       0.47       3.17       0.00       3.17        0.97    98.85   0.538
  sub63                      5.89       0.00       0.00       1.71       2.63       0.00       2.63        0.80    90.67   0.447
  sub64                      5.89       0.00       0.00       0.88       2.64       0.00       2.64        0.80    72.89   0.448
  sub65                      5.89       0.00       0.00       0.77       2.67       0.00       2.67        0.82    73.94   0.453
  sub66                      5.89       0.00       0.00       1.71       2.30       0.00       2.30        0.71    66.93   0.391
  sub67                      5.89       0.00       0.00       0.47       3.49       0.00       3.49        1.08   127.64   0.592
  sub68                      5.89       0.00       0.00       0.82       3.14       0.00       3.14        0.97   107.31   0.534
  sub69                      5.89       0.00       0.00       0.88       3.40       0.00       3.40        0.79   107.30   0.576
  sub70                      5.89       3.47       0.00       3.18       4.16       0.00       4.16        0.95    85.44   0.445
  sub71                      5.89       0.00       0.00       0.47       3.03       0.00       3.03        0.72    68.84   0.514
  sub72                      5.89       0.00       0.00       0.41       2.13       0.00       2.13        0.43    32.41   0.362
  sub73                      5.89       4.05       0.00       3.38       4.23       0.00       4.23        0.99    73.37   0.426
  sub74                      5.89       0.00       0.00       4.42       1.02       0.00       1.02        0.41    60.02   0.174
  
  
  ******************
  Node Depth Summary
  ******************
  
  ---------------------------------------------------------------------------------
                                 Average  Maximum  Maximum  Time of Max    Reported
                                   Depth    Depth      HGL   Occurrence   Max Depth
  Node                 Type       Meters   Meters   Meters  days hr:min      Meters
  ---------------------------------------------------------------------------------
  WS02001211           JUNCTION     0.56     0.74     5.58     0  05:21        0.74
  WS02001212           JUNCTION     0.31     0.44     5.51     0  05:21        0.44
  WS02001213           JUNCTION     0.54     0.67     5.43     0  05:22        0.67
  WS02003069           JUNCTION     0.38     0.50     5.09     0  03:16        0.50
  WS02003072           JUNCTION     0.45     0.57     4.94     0  03:16        0.57
  WS02003073           JUNCTION     0.26     0.34     4.41     0  03:17        0.34
  WS02003060           JUNCTION     0.34     0.44     5.38     0  03:15        0.44
  WS02003066           JUNCTION     0.22     0.28     5.83     0  03:18        0.28
  WS02003059           JUNCTION     0.60     0.72     5.41     0  03:14        0.72
  WS02003067           JUNCTION     0.55     0.67     5.99     0  03:17        0.67
  WS02004401           JUNCTION     0.64     0.78     6.78     0  03:14        0.78
  WS02004402           JUNCTION     0.67     0.81     6.77     0  03:14        0.81
  WS02004403           JUNCTION     0.69     0.83     6.76     0  03:14        0.83
  WS02004404           JUNCTION     0.77     0.91     6.76     0  03:14        0.91
  WS02004406           JUNCTION     0.77     0.91     6.74     0  03:15        0.91
  WS02004409           JUNCTION     0.45     0.60     6.37     0  03:16        0.60
  WS02004410           JUNCTION     0.47     0.62     6.34     0  03:17        0.62
  WS02004411           JUNCTION     0.49     0.63     6.31     0  03:17        0.63
  WS02004412           JUNCTION     0.51     0.65     6.29     0  03:17        0.65
  WS02004413           JUNCTION     0.67     0.81     6.28     0  03:17        0.81
  WS02004405           JUNCTION     0.76     0.90     6.75     0  03:14        0.90
  WS02006109           JUNCTION     0.71     0.88     7.50     0  03:12        0.88
  WS02006110           JUNCTION     0.71     0.86     7.44     0  03:12        0.86
  WS02006111           JUNCTION     0.20     0.26     6.97     0  03:12        0.26
  WS02006112           JUNCTION     0.80     0.97     6.85     0  03:13        0.97
  WS02006113           JUNCTION     0.32     0.41     7.31     0  03:12        0.41
  WS02006115           JUNCTION     0.53     0.68     6.82     0  03:14        0.68
  WS02006116           JUNCTION     0.61     0.76     6.80     0  03:14        0.76
  WS02006230           JUNCTION     0.67     0.90     7.65     0  03:12        0.90
  WS02006231           JUNCTION     0.44     0.61     7.73     0  03:12        0.61
  WS02006232           JUNCTION     0.57     0.75     7.79     0  03:11        0.75
  WS02006234           JUNCTION     0.49     0.70     7.86     0  03:11        0.70
  WS02006235           JUNCTION     0.52     0.74     7.90     0  03:11        0.74
  WS02006238           JUNCTION     0.54     0.77     7.91     0  03:11        0.77
  WS02006240           JUNCTION     0.43     0.70     7.99     0  03:11        0.70
  WS02006242           JUNCTION     0.49     0.77     8.04     0  03:11        0.77
  WS02006243           JUNCTION     0.37     0.66     8.08     0  03:11        0.66
  WS02006245           JUNCTION     0.35     0.63     8.12     0  03:11        0.63
  WS02006247           JUNCTION     0.37     0.64     8.14     0  03:11        0.64
  WS02006248           JUNCTION     0.32     0.58     8.17     0  03:11        0.58
  WS02006249           JUNCTION     0.36     0.60     8.19     0  03:11        0.60
  WS02006239           JUNCTION     0.49     0.75     7.96     0  03:11        0.75
  WS02006251           JUNCTION     0.35     0.62     8.29     0  03:10        0.61
  WS02006252           JUNCTION     0.31     0.59     8.83     0  06:09        0.58
  WS02006253           JUNCTION     0.37     0.64     8.29     0  03:10        0.64
  WS02006256           JUNCTION     0.98     1.20     8.13     0  03:40        1.20
  WS02004138           JUNCTION     0.12     0.19     7.44     0  05:20        0.19
  WS02004407           JUNCTION     0.21     0.27     6.58     0  03:15        0.27
  WS02006228           JUNCTION     0.70     0.90     7.55     0  03:12        0.90
  WS02006229           JUNCTION     0.68     0.88     7.58     0  03:11        0.88
  WS02006280           JUNCTION     0.05     0.15     8.42     0  02:17        0.15
  WS02006284           JUNCTION     0.35     0.48     8.88     0  02:17        0.48
  WS02006287           JUNCTION     0.08     0.21     9.17     0  02:17        0.21
  WSF200               JUNCTION     0.20     0.28     5.51     0  03:19        0.28
  HS02004901           JUNCTION     0.11     0.23    10.06     0  02:15        0.23
  HS02004881           JUNCTION     0.01     0.02     9.05     0  02:17        0.02
  HS02004876           JUNCTION     0.04     0.10     9.13     0  02:15        0.10
  HS02004870           JUNCTION     0.01     0.04     9.33     0  02:17        0.04
  HS02004862           JUNCTION     0.01     0.05     9.43     0  02:18        0.05
  HS02004856           JUNCTION     0.07     0.10     9.53     0  02:17        0.10
  HS02004852           JUNCTION     0.01     0.03     9.54     0  02:19        0.03
  HS02004848           JUNCTION     0.01     0.03     9.63     0  02:17        0.03
  HS02004842           JUNCTION     0.33     0.36     9.63     0  02:16        0.36
  HS02004837           JUNCTION     0.03     0.05     9.63     0  02:17        0.05
  HS02004830           JUNCTION     0.04     0.06     9.53     0  02:17        0.06
  HS02004824           JUNCTION     0.02     0.04     9.44     0  02:20        0.04
  HS02004817           JUNCTION     0.42     0.53     9.37     0  02:18        0.53
  HS02004807           JUNCTION     0.11     0.20     9.37     0  02:18        0.20
  HS02004802           JUNCTION     0.15     0.24     9.37     0  02:18        0.24
  HS02004799           JUNCTION     0.10     0.26     9.47     0  02:15        0.26
  HS02004792           JUNCTION     0.02     0.10     9.62     0  02:15        0.10
  HS02004788           JUNCTION     0.02     0.07     9.97     0  02:16        0.07
  HS02004785           JUNCTION     0.03     0.14    10.04     0  02:15        0.14
  HS02004777           JUNCTION     0.13     0.25    10.05     0  02:15        0.25
  HS02004770           JUNCTION     0.10     0.22    10.06     0  02:15        0.22
  HS02004480           JUNCTION     0.06     0.20     9.44     0  02:16        0.20
  HS02004479           JUNCTION     0.10     0.24     9.44     0  02:16        0.24
  HS02004478           JUNCTION     0.05     0.13     9.36     0  02:17        0.13
  YS02001745           JUNCTION     0.14     0.31     7.83     0  05:57        0.31
  YS02001748           JUNCTION     0.48     0.72     7.79     0  06:42        0.70
  YS02001751           JUNCTION     0.66     0.93     7.81     0  05:56        0.93
  YS02001754           JUNCTION     0.90     1.20     7.81     0  06:03        1.18
  YS02001762           JUNCTION     1.10     1.49     7.89     0  05:12        1.43
  YS02001765           JUNCTION     1.05     1.48     7.93     0  05:12        1.40
  YS02001767           JUNCTION     1.02     1.50     7.99     0  05:12        1.39
  YS02001770           JUNCTION     1.01     1.56     8.06     0  05:12        1.41
  YS02001774           JUNCTION     1.08     1.66     8.08     0  05:12        1.49
  YS02001779           JUNCTION     0.83     1.42     8.10     0  05:12        1.24
  YS02001882           JUNCTION     0.29     0.46     7.17     0  02:48        0.46
  YS02001884           JUNCTION     0.38     0.56     7.17     0  02:48        0.56
  YS02001759           JUNCTION     1.13     1.47     7.84     0  06:04        1.44
  YS02001887           JUNCTION     0.46     0.64     7.17     0  02:49        0.64
  YS02001890           JUNCTION     0.49     0.67     7.17     0  02:49        0.67
  YS02001898           JUNCTION     0.26     0.42     7.16     0  02:50        0.42
  YS02001901           JUNCTION     0.38     0.55     7.16     0  02:51        0.55
  YS02001904           JUNCTION     0.36     0.52     7.15     0  02:51        0.52
  YS02001907           JUNCTION     0.68     0.87     7.15     0  02:51        0.87
  YS02001910           JUNCTION     0.47     0.65     7.16     0  02:51        0.65
  YS02001915           JUNCTION     0.27     0.44     7.15     0  02:50        0.44
  YS02001918           JUNCTION     0.08     0.10     7.16     0  03:03        0.10
  YS02001619           JUNCTION     0.62     0.86     7.79     0  06:43        0.86
  YS02001629           JUNCTION     0.96     1.25     7.80     0  06:41        1.25
  YS02001641           JUNCTION     1.07     1.38     7.81     0  06:04        1.36
  YS02001644           JUNCTION     1.07     1.38     7.82     0  06:04        1.36
  YS02001652           JUNCTION     0.92     1.20     7.79     0  06:04        1.19
  YS02001655           JUNCTION     0.68     0.95     7.80     0  06:42        0.94
  YS02001920           JUNCTION     0.17     0.21     7.21     0  03:02        0.21
  YS02001923           JUNCTION     0.06     0.08     7.34     0  03:02        0.08
  YS02001926           JUNCTION     0.14     0.18     7.62     0  03:01        0.18
  YS02001929           JUNCTION     0.07     0.09     7.78     0  03:01        0.09
  YS02001658           JUNCTION     0.42     0.65     7.79     0  06:00        0.64
  YS02001661           JUNCTION     0.23     0.39     7.79     0  05:59        0.38
  YS02001664           JUNCTION     0.07     0.12     8.04     0  02:43        0.12
  YS02001622           JUNCTION     0.64     0.88     7.79     0  06:43        0.88
  YS02001633           JUNCTION     1.05     1.35     7.80     0  06:45        1.35
  YS02001649           JUNCTION     1.11     1.41     7.80     0  06:45        1.40
  YS02001757           JUNCTION     1.23     1.55     7.81     0  06:03        1.53
  YS02001895           JUNCTION     0.25     0.42     7.17     0  02:49        0.42
  YS02001625           JUNCTION     0.92     1.18     7.79     0  06:44        1.18
  YS02163301           JUNCTION     0.99     1.29     7.80     0  06:44        1.29
  YS02163601           JUNCTION     1.11     1.41     7.81     0  06:44        1.40
  YS02164001           JUNCTION     1.05     1.35     7.81     0  06:04        1.34
  YS02001647           JUNCTION     0.90     1.21     7.82     0  06:04        1.18
  YSB1154              JUNCTION     0.24     0.39     9.45     0  02:16        0.39
  YSB6556              JUNCTION     0.13     0.28     9.44     0  02:16        0.28
  YSB1174              JUNCTION     0.19     0.34     9.44     0  02:16        0.34
  YSB1171              JUNCTION     0.39     0.54     9.44     0  02:16        0.54
  YS02006553           JUNCTION     0.69     0.87     7.15     0  02:51        0.87
  YS02006561           JUNCTION     0.14     0.23     6.89     0  02:51        0.23
  YS02006556           JUNCTION     0.66     0.84     7.15     0  02:51        0.84
  YS02006558           JUNCTION     0.70     0.88     7.15     0  02:51        0.88
  YS02001783           JUNCTION     0.24     0.41     6.55     0  02:50        0.41
  YS02001784           JUNCTION     0.28     0.43     6.50     0  02:51        0.43
  YS02001786           JUNCTION     0.24     0.37     6.40     0  02:51        0.37
  YS02001788           JUNCTION     0.17     0.28     6.25     0  02:51        0.28
  YS02001790           JUNCTION     0.21     0.34     5.98     0  02:52        0.34
  YS02001791           JUNCTION     0.14     0.22     5.69     0  02:52        0.22
  YS02001793           JUNCTION     0.08     0.14     4.97     0  02:39        0.14
  WS02004139           JUNCTION     0.50     0.69     5.60     0  05:20        0.69
  WSC                  OUTFALL      0.26     0.34     1.01     0  03:17        0.34
  3                    OUTFALL      0.06     0.20     6.20     0  03:40        0.20
  4                    OUTFALL      0.01     0.10     7.10     0  03:11        0.10
  5                    OUTFALL      0.00     0.00     5.00     0  00:00        0.00
  JK-storage           STORAGE      0.52     3.86     4.66     0  03:28        3.86
  CC-storage           STORAGE      0.49     0.77     7.77     0  06:43        0.77
  XR-storage           STORAGE      7.60     7.72     5.72     0  02:01        7.72
  
  
  *******************
  Node Inflow Summary
  *******************
  
  -------------------------------------------------------------------------------------------------
                                  Maximum  Maximum                  Lateral       Total        Flow
                                  Lateral    Total  Time of Max      Inflow      Inflow     Balance
                                   Inflow   Inflow   Occurrence      Volume      Volume       Error
  Node                 Type           LPS      LPS  days hr:min    10^6 ltr    10^6 ltr     Percent
  -------------------------------------------------------------------------------------------------
  WS02001211           JUNCTION      7.35   374.88     0  05:20       0.207         4.5       0.609
  WS02001212           JUNCTION      0.00   366.40     0  05:21           0        4.47       0.368
  WS02001213           JUNCTION      0.00   362.47     0  05:21           0        4.46       0.349
  WS02003069           JUNCTION      0.32   723.75     0  03:15     0.00902          11       0.232
  WS02003072           JUNCTION      0.00   723.52     0  03:16           0          11       0.295
  WS02003073           JUNCTION      1.82   725.28     0  03:16      0.0514          11       0.328
  WS02003060           JUNCTION     16.53   723.59     0  03:15       0.466          11       0.220
  WS02003066           JUNCTION      0.00   450.09     0  03:18           0        6.13       0.077
  WS02003059           JUNCTION      0.00   356.09     0  05:22           0        4.45       0.787
  WS02003067           JUNCTION      0.00   450.07     0  03:17           0        6.14       0.160
  WS02004401           JUNCTION      0.00   453.35     0  03:13           0        6.39       0.344
  WS02004402           JUNCTION      0.00   452.69     0  03:14           0        6.36       0.324
  WS02004403           JUNCTION      0.00   452.50     0  03:14           0        6.34       0.295
  WS02004404           JUNCTION      0.16   452.36     0  03:14     0.00457        6.33       0.222
  WS02004406           JUNCTION      0.00   452.38     0  03:15           0         6.3       0.542
  WS02004409           JUNCTION      0.00   452.21     0  03:15           0        6.25       0.281
  WS02004410           JUNCTION      0.00   451.53     0  03:15           0        6.24       0.317
  WS02004411           JUNCTION      0.00   450.95     0  03:16           0        6.22       0.325
  WS02004412           JUNCTION      0.00   450.48     0  03:16           0         6.2       0.349
  WS02004413           JUNCTION      0.00   450.18     0  03:17           0        6.17       0.512
  WS02004405           JUNCTION      0.04   452.33     0  03:15     0.00107        6.32       0.331
  WS02006109           JUNCTION      1.23   454.65     0  03:12      0.0347        6.48       0.294
  WS02006110           JUNCTION      0.00   454.63     0  03:12           0        6.46       0.303
  WS02006111           JUNCTION      0.00   468.09     0  03:12           0        6.43       0.069
  WS02006112           JUNCTION      9.64   457.42     0  03:12      0.0263        6.45       0.455
  WS02006113           JUNCTION      0.00   454.56     0  03:12           0        6.44       0.149
  WS02006115           JUNCTION      0.00   455.12     0  03:12           0        6.43       0.322
  WS02006116           JUNCTION      0.00   454.05     0  03:13           0        6.41       0.306
  WS02006230           JUNCTION     10.28   394.19     0  04:12        0.29        5.58       0.241
  WS02006231           JUNCTION      0.00   385.09     0  04:12           0         5.3       0.201
  WS02006232           JUNCTION      0.00   385.19     0  04:12           0        5.32       0.298
  WS02006234           JUNCTION      0.00   386.48     0  04:12           0        5.32       0.145
  WS02006235           JUNCTION      0.00   386.67     0  04:12           0        5.38       0.194
  WS02006238           JUNCTION      0.00   334.67     0  06:11           0        3.47       0.214
  WS02006240           JUNCTION      0.00   335.01     0  06:11           0        3.45       0.332
  WS02006242           JUNCTION      0.00   336.20     0  06:11           0        3.45       0.416
  WS02006243           JUNCTION      0.00   336.98     0  06:51           0        3.43      -0.311
  WS02006245           JUNCTION      0.00   342.88     0  06:51           0        3.44       0.403
  WS02006247           JUNCTION      0.00   348.11     0  06:50           0        3.45       0.224
  WS02006248           JUNCTION      0.00   352.40     0  06:50           0        3.45       0.062
  WS02006249           JUNCTION      0.00   403.98     0  03:10           0        3.57       0.405
  WS02006239           JUNCTION      0.00   334.51     0  06:11           0        3.46       0.306
  WS02006251           JUNCTION      0.08   406.60     0  03:10     0.00217        3.61       0.231
  WS02006252           JUNCTION      0.00   399.92     0  04:10           0        3.43       0.013
  WS02006253           JUNCTION      1.47    42.47     0  02:16     0.00341       0.185       2.169
  WS02006256           JUNCTION      0.00   599.89     0  03:40           0        3.94       0.073
  WS02004138           JUNCTION      0.00   379.68     0  05:20           0         4.3       0.017
  WS02004407           JUNCTION      0.00   452.26     0  03:15           0        6.26       0.123
  WS02006228           JUNCTION      0.00   453.42     0  03:12           0        6.46       0.221
  WS02006229           JUNCTION      0.00   453.38     0  03:11           0        6.47       0.200
  WS02006280           JUNCTION      0.00   217.53     0  02:17           0       0.907       0.008
  WS02006284           JUNCTION      0.10   217.52     0  02:17      0.0027       0.908       0.117
  WS02006287           JUNCTION      0.00   217.38     0  02:17           0       0.906       0.080
  WSF200               JUNCTION      0.00   450.08     0  03:18           0        6.13       0.077
  HS02004901           JUNCTION     11.93    11.93     0  02:09      0.0317      0.0318       5.839
  HS02004881           JUNCTION      4.82    41.35     0  02:16      0.0138       0.145       0.182
  HS02004876           JUNCTION      7.65    36.85     0  02:17      0.0265       0.132       0.400
  HS02004870           JUNCTION      8.49    29.37     0  02:17      0.0262       0.106       0.101
  HS02004862           JUNCTION      6.94    21.46     0  02:17      0.0318      0.0798       0.212
  HS02004856           JUNCTION      6.29    14.58     0  02:17      0.0197      0.0494       3.002
  HS02004852           JUNCTION      0.00     8.69     0  02:17           0      0.0298       0.170
  HS02004848           JUNCTION     13.82    13.82     0  02:19      0.0624      0.0624       0.070
  HS02004842           JUNCTION      0.00     5.61     0  02:29           0      0.0456      39.896
  HS02004837           JUNCTION     19.93    24.68     0  02:16       0.225       0.257       0.317
  HS02004830           JUNCTION      0.15    24.82     0  02:17     0.00423       0.248       0.500
  HS02004824           JUNCTION     15.50    40.13     0  02:20      0.0817       0.328       0.164
  HS02004817           JUNCTION      0.60    40.73     0  02:20      0.0169       0.344       5.085
  HS02004807           JUNCTION     15.97    55.26     0  02:18      0.0481       0.376       1.137
  HS02004802           JUNCTION      0.00    55.58     0  02:20           0       0.372       1.103
  HS02004799           JUNCTION     12.29   138.29     0  02:15      0.0389       0.471       0.485
  HS02004792           JUNCTION     54.98   126.28     0  02:14        0.17       0.433       0.095
  HS02004788           JUNCTION     18.33    73.52     0  02:15       0.101       0.264       0.149
  HS02004785           JUNCTION      0.15    55.60     0  02:15     0.00423       0.164       0.294
  HS02004777           JUNCTION      0.03    55.95     0  02:13    0.000846       0.165       3.243
  HS02004770           JUNCTION     46.61    57.20     0  02:11       0.135       0.166       1.905
  HS02004480           JUNCTION      0.00   163.02     0  02:15           0        0.55       0.133
  HS02004479           JUNCTION      0.00    25.27     0  02:18           0       0.091       0.808
  HS02004478           JUNCTION      0.00   217.37     0  02:17           0       0.906       0.069
  YS02001745           JUNCTION     76.78   118.62     0  05:48       0.836       0.938       0.238
  YS02001748           JUNCTION      0.04   152.37     0  05:41     0.00127           1       1.067
  YS02001751           JUNCTION      0.01   157.33     0  05:33     0.00031       0.897       2.048
  YS02001754           JUNCTION      0.26    97.47     0  02:57     0.00733        0.83       2.827
  YS02001762           JUNCTION      0.00   120.51     0  02:40           0       0.907       2.396
  YS02001765           JUNCTION      0.00   121.62     0  02:36           0       0.909       2.757
  YS02001767           JUNCTION      0.54   116.21     0  02:55      0.0151        0.93       3.981
  YS02001770           JUNCTION     99.01   117.71     0  02:54       0.977        1.04       3.122
  YS02001774           JUNCTION      0.00    47.82     0  05:02           0       0.155      19.478
  YS02001779           JUNCTION      0.01    47.20     0  05:02    0.000141      0.0705      23.246
  YS02001882           JUNCTION      0.00     4.32     0  02:09           0     0.00532      46.039
  YS02001884           JUNCTION      0.00    12.00     0  02:06           0      0.0213      29.706
  YS02001759           JUNCTION     96.94   202.22     0  02:48       0.912        1.78       1.295
  YS02001887           JUNCTION    128.09   128.09     0  02:40        1.09         1.1       0.656
  YS02001890           JUNCTION      0.00   128.00     0  02:42           0        1.07       0.736
  YS02001898           JUNCTION      0.00   127.64     0  02:43           0        1.06       0.207
  YS02001901           JUNCTION      0.00   127.54     0  02:43           0        1.06       0.523
  YS02001904           JUNCTION      0.00   126.85     0  02:43           0        1.06       0.486
  YS02001907           JUNCTION      0.00   228.69     0  02:54           0        2.27       0.980
  YS02001910           JUNCTION      0.00   104.25     0  03:01           0        1.22       0.837
  YS02001915           JUNCTION     68.86   103.63     0  03:01       0.715        1.23       0.373
  YS02001918           JUNCTION      0.00    35.27     0  03:02           0       0.513       0.221
  YS02001619           JUNCTION     66.93    66.93     0  02:55       0.706       0.707       1.290
  YS02001629           JUNCTION      0.00    90.71     0  03:03           0       0.674       3.510
  YS02001641           JUNCTION      0.00   151.64     0  03:04           0        1.37       1.552
  YS02001644           JUNCTION     72.93   226.74     0  03:04       0.803        2.14       1.231
  YS02001652           JUNCTION      0.00   117.93     0  02:58           0       0.795       2.883
  YS02001655           JUNCTION      0.15   132.12     0  03:33     0.00434       0.844       2.400
  YS02001920           JUNCTION      2.87    35.29     0  03:02      0.0809       0.515       0.400
  YS02001923           JUNCTION      0.04    32.43     0  03:01     0.00106       0.435       0.070
  YS02001926           JUNCTION      0.05    32.45     0  03:01     0.00147       0.436       0.499
  YS02001929           JUNCTION     32.41    32.41     0  03:01       0.434       0.434       0.068
  YS02001658           JUNCTION      0.00   135.72     0  05:30           0       0.948       1.184
  YS02001661           JUNCTION      0.00   119.33     0  05:30           0       0.906       0.372
  YS02001664           JUNCTION     90.67    90.67     0  02:43       0.796       0.796       0.016
  YS02001622           JUNCTION      0.00    82.69     0  02:50           0       0.738       3.468
  YS02001633           JUNCTION     74.14   155.72     0  03:01       0.827        1.42       2.217
  YS02001649           JUNCTION      0.00   314.40     0  02:57           0        2.83       1.324
  YS02001757           JUNCTION      0.00   564.89     0  02:57           0        5.31       1.764
  YS02001895           JUNCTION      0.00   127.67     0  02:43           0        1.07       0.352
  YS02001625           JUNCTION      0.00    85.44     0  05:30           0        0.75       5.360
  YS02163301           JUNCTION      0.00    92.05     0  03:02           0       0.624       3.885
  YS02163601           JUNCTION      0.11   146.06     0  02:59      0.0031        1.39       2.202
  YS02164001           JUNCTION      0.00   144.29     0  03:02           0        1.37       1.442
  YS02001647           JUNCTION      0.00   228.36     0  03:04           0         2.1       1.292
  YSB1154              JUNCTION     13.60    13.60     0  02:14      0.0472      0.0485       3.067
  YSB6556              JUNCTION      0.00    13.56     0  02:17           0      0.0495       2.583
  YSB1174              JUNCTION     13.59    13.59     0  02:09      0.0344      0.0354       3.761
  YSB1171              JUNCTION      0.00    25.31     0  02:15           0      0.0904       7.516
  YS02006553           JUNCTION      0.00   228.76     0  02:54           0        2.26       0.635
  YS02006561           JUNCTION      0.00   339.66     0  02:51           0         3.2       0.020
  YS02006556           JUNCTION      0.00   228.84     0  02:54           0        2.27       0.459
  YS02006558           JUNCTION    108.19   335.90     0  02:51       0.991        3.23       0.140
  YS02001783           JUNCTION      0.00   335.89     0  02:51           0         3.2       0.048
  YS02001784           JUNCTION      1.06   336.95     0  02:51      0.0299        3.23       0.079
  YS02001786           JUNCTION      0.06   337.00     0  02:51     0.00159        3.23       0.077
  YS02001788           JUNCTION      0.07   337.07     0  02:51       0.002        3.23       0.044
  YS02001790           JUNCTION      0.15   337.22     0  02:52     0.00437        3.23       0.055
  YS02001791           JUNCTION      0.00   337.21     0  02:52           0        3.23       0.028
  YS02001793           JUNCTION      0.00   337.21     0  02:52           0        3.23       0.008
  WS02004139           JUNCTION      0.32   378.95     0  05:20     0.00905        4.31       0.489
  WSC                  OUTFALL       0.00   725.33     0  03:17           0        10.9       0.000
  3                    OUTFALL       0.00   481.41     0  03:40           0        1.99       0.000
  4                    OUTFALL       0.00    93.52     0  03:11           0      0.0997       0.000
  5                    OUTFALL       0.00     0.00     0  00:00           0           0       0.000 ltr
  JK-storage           STORAGE       0.00   337.21     0  02:52           0        3.38     -14.140
  CC-storage           STORAGE       0.00   565.27     0  02:57           0         5.2       0.698
  XR-storage           STORAGE     324.79   324.79     0  02:50        7.04        7.64      -0.007
  
  
  **********************
  Node Surcharge Summary
  **********************
  
  Surcharging occurs when water rises above the top of the highest conduit.
  ---------------------------------------------------------------------
                                               Max. Height   Min. Depth
                                   Hours       Above Crown    Below Rim
  Node                 Type      Surcharged         Meters       Meters
  ---------------------------------------------------------------------
  WS02006109           JUNCTION        0.81          0.058        1.762
  WS02006232           JUNCTION        0.60          0.054        1.426
  WS02006235           JUNCTION        0.20          0.031        1.259
  WS02006238           JUNCTION        0.31          0.050        1.380
  WS02006242           JUNCTION        0.20          0.043        0.777
  WS02006239           JUNCTION        0.04          0.007        1.283
  WS02006252           JUNCTION        1.21          0.187        0.913
  WS02006228           JUNCTION        0.78          0.066        2.134
  YS02001754           JUNCTION        2.61          0.152        0.998
  YS02001762           JUNCTION        5.16          0.488        0.662
  YS02001765           JUNCTION        5.06          0.484        0.616
  YS02001767           JUNCTION        4.66          0.497        0.533
  YS02001770           JUNCTION        4.16          0.530        0.390
  YS02001774           JUNCTION        5.13          0.656        0.394
  YS02001779           JUNCTION        2.14          0.417        0.263
  YS02001759           JUNCTION        5.22          0.474        0.736
  YS02001641           JUNCTION        5.11          0.376        0.724
  YS02001644           JUNCTION        5.12          0.385        0.535
  YS02001652           JUNCTION        2.99          0.168        0.962
  YS02001633           JUNCTION        5.01          0.331        0.729
  YS02001649           JUNCTION        5.18          0.409        0.641
  YS02001757           JUNCTION        5.36          0.547        0.663
  YS02001625           JUNCTION        3.33          0.182        0.598
  YS02163301           JUNCTION        4.25          0.287        0.743
  YS02163601           JUNCTION        5.18          0.409        0.671
  YS02164001           JUNCTION        5.06          0.352        0.748
  YS02001647           JUNCTION        3.18          0.206        0.694
  
  
  *********************
  Node Flooding Summary
  *********************
  
  Flooding refers to all water that overflows a node, whether it ponds or not.
  --------------------------------------------------------------------------
                                                             Total   Maximum
                                 Maximum   Time of Max       Flood    Ponded
                        Hours       Rate    Occurrence      Volume     Depth
  Node                 Flooded       LPS   days hr:min    10^6 ltr    Meters
  --------------------------------------------------------------------------
  XR-storage              5.23    272.43      0  04:20       2.415     0.000
  
  
  **********************
  Storage Volume Summary
  **********************
  
  --------------------------------------------------------------------------------------------------
                         Average     Avg  Evap Exfil       Maximum     Max    Time of Max    Maximum
                          Volume    Pcnt  Pcnt  Pcnt        Volume    Pcnt     Occurrence    Outflow
  Storage Unit           1000 m3    Full  Loss  Loss       1000 m3    Full    days hr:min        LPS
  --------------------------------------------------------------------------------------------------
  JK-storage               0.026       9     0     0         0.194      67       0  03:28     599.89
  CC-storage               1.367       9     0     0         2.140      14       0  06:43     399.92
  XR-storage               0.912      98     0     0         0.926     100       0  02:01     379.68
  
  
  ***********************
  Outfall Loading Summary
  ***********************
  
  -----------------------------------------------------------
                         Flow       Avg       Max       Total
                         Freq      Flow      Flow      Volume
  Outfall Node           Pcnt       LPS       LPS    10^6 ltr
  -----------------------------------------------------------
  WSC                   99.99    453.77    725.33      10.936
  3                     64.55    162.35    481.41       1.993
  4                     18.33     27.31     93.52       0.100
  5                      0.00      0.00      0.00       0.000
  -----------------------------------------------------------
  System                45.72    643.42   1012.16      13.029
  
  
  ********************
  Link Flow Summary
  ********************
  
  -----------------------------------------------------------------------------
                                 Maximum  Time of Max   Maximum    Max/    Max/
                                  |Flow|   Occurrence   |Veloc|    Full    Full
  Link                 Type          LPS  days hr:min     m/sec    Flow   Depth
  -----------------------------------------------------------------------------
  WS02003066WSF200     CONDUIT    450.08     0  03:18      2.66    0.08    0.21
  WS02006287WS02006284 CONDUIT    217.42     0  02:17      1.65    0.10    0.22
  WS02006284WS02006280 CONDUIT    217.53     0  02:17      1.89    0.09    0.20
  WS02006280WS02006229 CONDUIT    217.53     0  02:17      3.04    0.05    0.15
  WS02006229WS02006228 CONDUIT    453.42     0  03:12      0.90    1.50    1.00
  WS02006256WS02006235 CONDUIT    166.25     0  00:01      2.58    1.76    1.00
  WS02006253WS02006251 CONDUIT     52.13     0  02:18      0.50    0.16    0.89
  WS02006252WS02006251 CONDUIT    399.98     0  03:10      3.18    1.47    1.00
  WS02006251WS02006249 CONDUIT    403.98     0  03:10      1.15    1.16    0.87
  WS02006249WS02006248 CONDUIT    352.40     0  06:50      1.17    1.93    0.83
  WS02006248WS02006247 CONDUIT    348.11     0  06:50      1.14    0.76    0.87
  WS02006247WS02006245 CONDUIT    342.88     0  06:51      1.12    2.72    0.91
  WS02006245WS02006243 CONDUIT    336.98     0  06:51      1.16    1.00    0.92
  WS02006243WS02006242 CONDUIT    336.20     0  06:11      1.02    0.72    0.97
  WS02006242WS02006240 CONDUIT    335.01     0  06:11      0.93    1.33    0.99
  WS02006240WS02006239 CONDUIT    334.51     0  06:11      0.97    1.05    1.00
  WS02006239WS02006238 CONDUIT    334.67     0  06:11      0.92    1.07    1.00
  WS02006238WS02006235 CONDUIT    333.81     0  06:11      1.25    0.75    1.00
  WS02006235WS02006234 CONDUIT    386.48     0  04:12      1.04    4.08    0.99
  WS02006234WS02006232 CONDUIT    385.19     0  04:12      1.13    0.78    1.00
  WS02006232WS02006231 CONDUIT    385.09     0  04:12      1.05    0.81    0.93
  WS02006231WS02006230 CONDUIT    383.91     0  04:12      1.36    5.82    0.81
  WS02006230WS02006229 CONDUIT    393.71     0  04:13      1.02    8.76    1.00
  WS02006228WS02006109 CONDUIT    453.42     0  03:12      0.90    1.98    1.00
  WS02006116WS02004401 CONDUIT    453.35     0  03:13      0.73    0.62    0.77
  WS02006115WS02006116 CONDUIT    454.05     0  03:13      0.84    0.58    0.69
  WS02006113WS02006111 CONDUIT    468.09     0  03:12      2.32    0.56    0.42
  WS02006112WS02006115 CONDUIT    455.12     0  03:12      0.66    0.27    0.82
  WS02006111WS02006112 CONDUIT    456.19     0  03:12      1.32    0.22    0.66
  WS02006110WS02006113 CONDUIT    454.56     0  03:12      1.11    0.41    0.76
  WS02006109WS02006110 CONDUIT    454.63     0  03:12      0.91    0.87    0.97
  WS02004411WS02004412 CONDUIT    450.48     0  03:16      0.85    0.64    0.64
  WS02004401WS02004402 CONDUIT    452.69     0  03:14      0.77    0.54    0.80
  WS02004413WS02003067 CONDUIT    450.07     0  03:17      1.01    0.19    0.55
  WS02004412WS02004413 CONDUIT    450.18     0  03:17      0.74    0.30    0.73
  WS02004410WS02004411 CONDUIT    450.95     0  03:16      0.87    0.62    0.63
  WS02004409WS02004410 CONDUIT    451.53     0  03:15      0.90    0.58    0.61
  WS02004407WS02004409 CONDUIT    452.21     0  03:15      1.37    0.16    0.44
  WS02004406WS02004407 CONDUIT    452.26     0  03:15      0.94    0.20    0.59
  WS02004405WS02004406 CONDUIT    452.38     0  03:15      0.66    0.89    0.90
  WS02004404WS02004405 CONDUIT    452.29     0  03:15      0.84    4.43    0.90
  WS02004403WS02004404 CONDUIT    452.20     0  03:14      0.74    0.33    0.87
  WS02004402WS02004403 CONDUIT    452.50     0  03:14      0.75    0.65    0.82
  WS02004139WS02001211 CONDUIT    367.53     0  05:20      0.57    0.46    0.55
  WS02004138WS02004139 CONDUIT    378.63     0  05:20      1.55    0.08    0.41
  WS02003067WS02003066 CONDUIT    450.09     0  03:18      1.09    0.14    0.39
  WS02001213WS02003059 CONDUIT    356.09     0  05:22      0.62    0.59    0.68
  WS02001212WS02001213 CONDUIT    362.47     0  05:21      1.27    0.56    0.39
  WS02001211WS02001212 CONDUIT    366.40     0  05:21      0.76    0.28    0.59
  WS02003072WS02003073 CONDUIT    723.46     0  03:16      1.58    1.56    0.43
  WS02003069WS02003072 CONDUIT    723.52     0  03:16      1.49    0.35    0.44
  WS02003060WS02003069 CONDUIT    723.43     0  03:15      1.75    0.28    0.39
  WS02003059WS02003060 CONDUIT    349.57     0  05:22      0.77    0.23    0.58
  HS02004901HS02004770 CONDUIT     10.98     0  02:14      0.05    0.04    0.33
  HS02004876HS02004881 CONDUIT     36.94     0  02:17      0.59    0.39    0.09
  HS02004870HS02004876 CONDUIT     29.35     0  02:17      0.41    0.02    0.10
  HS02004842HS02004848 CONDUIT      5.61     0  02:29      0.03    0.00    0.28
  HS02004837HS02004842 CONDUIT      5.81     0  02:30      0.41    0.00    0.29
  HS02004830HS02004837 CONDUIT     24.67     0  02:17      0.45    0.02    0.08
  HS02004824HS02004830 CONDUIT     24.81     0  02:17      0.49    0.03    0.07
  HS02004817HS02004824 CONDUIT     40.13     0  02:20      0.17    0.02    0.40
  HS02004770HS02004777 CONDUIT     55.92     0  02:13      0.24    0.10    0.34
  HS02004799HS02004480 CONDUIT    138.08     0  02:15      0.61    0.17    0.32
  HS02004792HS02004799 CONDUIT    126.20     0  02:15      0.70    0.08    0.26
  HS02004788HS02004792 CONDUIT     73.46     0  02:16      0.85    0.05    0.12
  HS02004785HS02004788 CONDUIT     55.50     0  02:16      0.53    0.42    0.15
  HS02004777HS02004785 CONDUIT     55.45     0  02:15      0.29    0.07    0.28
  HS02004480HS02004478 CONDUIT    162.94     0  02:16      0.99    0.69    0.24
  HS02004479HS02004480 CONDUIT     25.53     0  02:18      0.15    0.02    0.31
  HS02004862HS02004870 CONDUIT     21.42     0  02:18      0.48    0.02    0.06
  HS02004848HS02004852 CONDUIT      8.69     0  02:17      0.32    0.01    0.04
  HS02004856HS02004862 CONDUIT     14.54     0  02:17      0.35    0.01    0.06
  HS02004852HS02004856 CONDUIT      8.65     0  02:19      0.13    0.01    0.09
  HS02004802HS02004478 CONDUIT     56.01     0  02:21      0.31    0.05    0.26
  HS02004478WS02006287 CONDUIT    217.38     0  02:17      1.35    0.06    0.18
  HS02004817HS02004807 CONDUIT     41.32     0  02:22      0.11    0.02    0.52
  HS02004807HS02004802 CONDUIT     55.58     0  02:20      0.26    0.11    0.31
  YS02001759YS02001757 CONDUIT    204.44     0  02:48      0.26    0.15    1.00
  YS02001762YS02001759 CONDUIT    105.80     0  02:54      0.18    0.12    1.00
  YS02001765YS02001762 CONDUIT    120.51     0  02:40      0.23    0.11    1.00
  YS02001770YS02001767 CONDUIT    115.68     0  02:55      0.31    0.46    1.00
  YS02001774YS02001770 CONDUIT     47.82     0  05:02      0.14    0.03    1.00
  YS02001779YS02001774 CONDUIT     47.19     0  05:02      0.07    0.02    1.00
  YS02001649YS02001757 CONDUIT    316.01     0  02:57      0.40    0.19    1.00
  YS02001767YS02001765 CONDUIT    121.62     0  02:36      0.26    0.15    1.00
  YS02006561YS02001783 CONDUIT    335.89     0  02:51      1.82    0.17    0.39
  YS02001783YS02001784 CONDUIT    335.89     0  02:51      1.26    0.46    0.52
  YS02001784YS02001785 CONDUIT    336.95     0  02:51      1.34    0.78    0.50
  YS02001788YS02001790 CONDUIT    337.07     0  02:52      1.91    0.25    0.38
  YS02001790YS02001791 CONDUIT    337.21     0  02:52      2.19    0.37    0.35
  YS02001791YS02001793 CONDUIT    337.21     0  02:52      4.49    0.14    0.22
  YS02001910YS02001907 CONDUIT    104.44     0  03:01      0.49    0.06    0.75
  YS02001786YS02001788 CONDUIT    336.99     0  02:51      1.78    0.65    0.40
  YS02001915YS02001910 CONDUIT    104.25     0  03:01      0.45    0.05    0.54
  YS02001918YS02001915 CONDUIT     35.26     0  03:03      0.44    0.02    0.27
  YS02001923YS02001920 CONDUIT     32.42     0  03:02      0.46    0.01    0.14
  YS02001926YS02001923 CONDUIT     32.39     0  03:01      0.50    0.05    0.14
  YS02001929YS02001926 CONDUIT     32.39     0  03:01      0.53    0.02    0.13
  YS02001920YS02001918 CONDUIT     35.27     0  03:02      0.47    0.03    0.15
  YS02001629YS02163301 CONDUIT     92.05     0  03:02      0.12    0.11    1.00
  YS02001619YS02001622 CONDUIT     82.69     0  02:50      0.66    0.12    0.87
  YS02001622YS02001625 CONDUIT     85.44     0  05:30      0.26    0.05    0.94
  YS02001625YS02001629 CONDUIT     90.71     0  03:03      0.26    0.04    0.94
  YS02163301YS02001633 CONDUIT     82.96     0  03:39      0.11    0.08    1.00
  YS02163601YS02164001 CONDUIT    144.29     0  03:02      0.18    0.13    1.00
  YS02164001YS02001641 CONDUIT    151.64     0  03:04      0.19    0.21    1.00
  YS02001641YS02001644 CONDUIT    155.78     0  03:04      0.20    0.50    1.00
  YS02001647YS02001649 CONDUIT    234.73     0  02:59      0.31    0.12    1.00
  YS02006553YS02006556 CONDUIT    228.84     0  02:54      0.33    0.20    0.83
  YS02006556YS02006558 CONDUIT    228.88     0  02:54      0.32    0.18    0.86
  YSB6556YSB1171       CONDUIT     13.82     0  02:18      0.06    0.01    0.58
  YS02001907YS02006553 CONDUIT    228.76     0  02:54      0.27    0.27    0.95
  YS02006558YS02006561 CONDUIT    339.66     0  02:51      2.36    0.75    0.51
  YS02001633YS02163601 CONDUIT    145.95     0  02:59      0.19    0.15    1.00
  YS02001644YS02001647 CONDUIT    228.36     0  03:04      0.30    0.13    1.00
  YS02001745YS02001748 CONDUIT    152.33     0  05:41      1.42    0.06    0.46
  YS02001748YS02001751 CONDUIT    149.81     0  05:33      1.11    0.08    0.82
  YS02001751YS02001754 CONDUIT     97.21     0  02:57      0.98    0.05    0.97
  YS02001754YS02001757 CONDUIT    107.85     0  03:41      0.33    0.04    1.00
  YS02001882YS02001884 CONDUIT      4.32     0  02:09      0.06    0.00    0.48
  YS02001884YS02001887 CONDUIT     12.00     0  02:06      0.06    0.02    0.57
  YS02001890YS02001895 CONDUIT    127.67     0  02:43      0.29    0.06    0.54
  YS02001895YS02001898 CONDUIT    127.64     0  02:43      0.49    0.22    0.40
  YS02001898YS02001901 CONDUIT    127.54     0  02:43      0.34    0.08    0.48
  YS02001901YS02001904 CONDUIT    126.85     0  02:43      0.30    0.20    0.54
  YS02001904YS02001907 CONDUIT    126.81     0  02:42      0.22    0.04    0.69
  YS02001887YS02001890 CONDUIT    128.00     0  02:42      0.25    0.22    0.63
  YS02001652YS02001649 CONDUIT    126.96     0  02:37      0.33    0.06    1.00
  YS02001655YS02001652 CONDUIT    117.93     0  02:58      1.05    0.06    0.97
  YS02001658YS02001655 CONDUIT    131.96     0  03:33      1.27    0.06    0.79
  YS02001661YS02001658 CONDUIT    135.72     0  05:30      1.47    0.05    0.47
  YS02001664YS02001661 CONDUIT     90.67     0  02:43      1.14    0.03    0.22
  YSB1154YSB6556       CONDUIT     13.56     0  02:17      0.19    0.02    0.47
  YSB1174YSB1171       CONDUIT     12.61     0  02:10      0.06    0.02    0.59
  YSB1171HS02004479    CONDUIT     25.27     0  02:18      0.54    0.02    0.46
  HS02004881HS02006253 CONDUIT     41.34     0  02:17      1.70    0.01    0.23
  YS02001793JiankangQianchi CONDUIT    337.21     0  02:52     13.30    0.03    0.55
  YS02001757CaochengTiaoxuchi CONDUIT    565.27     0  02:57      1.12    0.25    0.88
  WSF200WS02003060     CONDUIT    449.84     0  03:18      1.85    0.10    0.30
  1                    CONDUIT    725.33     0  03:17      3.05    0.25    0.34
  2                    CONDUIT     93.52     0  03:11      4.76    0.22    0.32
  3                    CONDUIT    481.41     0  03:40      9.74    0.77    0.66
  4                    CONDUIT      0.00     0  00:00      0.00    0.00    0.00
  CC-Pump-1            PUMP       200.00     0  03:00              1.00
  CC-Pump-2            PUMP       200.00     0  03:10              1.00
  JK-Pump-1            PUMP       299.89     0  03:40              1.00
  JK-Pump-2            PUMP       300.00     0  00:00              1.00
  XR-Pump-1            PUMP        95.00     0  01:00              1.00
  XR-Pump-2            PUMP        95.00     0  00:20              1.00
  XR-Pump-3            PUMP        95.00     0  02:30              1.00
  XR-Pump-4            PUMP        95.00     0  01:30              1.00
  
  
  ***************************
  Flow Classification Summary
  ***************************
  
  -------------------------------------------------------------------------------------
                      Adjusted    ---------- Fraction of Time in Flow Class ---------- 
                       /Actual         Up    Down  Sub   Sup   Up    Down  Norm  Inlet 
  Conduit               Length    Dry  Dry   Dry   Crit  Crit  Crit  Crit  Ltd   Ctrl  
  -------------------------------------------------------------------------------------
  WS02003066WSF200        1.00   0.07  0.00  0.00  0.00  0.93  0.00  0.00  0.76  0.00
  WS02006287WS02006284    1.00   0.04  0.02  0.00  0.67  0.27  0.00  0.00  0.77  0.00
  WS02006284WS02006280    1.00   0.05  0.00  0.00  0.00  0.00  0.00  0.95  0.00  0.00
  WS02006280WS02006229    1.00   0.05  0.00  0.00  0.00  0.00  0.00  0.95  0.00  0.00
  WS02006229WS02006228    1.00   0.00  0.00  0.00  0.99  0.00  0.00  0.01  0.00  0.00
  WS02006256WS02006235    1.00   0.00  0.00  0.00  1.00  0.00  0.00  0.00  0.00  0.00
  WS02006253WS02006251    1.00   0.03  0.01  0.00  0.95  0.00  0.00  0.00  0.00  0.00
  WS02006252WS02006251    1.00   0.09  0.00  0.00  0.00  0.00  0.91  0.00  0.00  0.00
  WS02006251WS02006249    1.00   0.00  0.00  0.00  1.00  0.00  0.00  0.00  0.32  0.00
  WS02006249WS02006248    1.00   0.00  0.02  0.00  0.83  0.00  0.15  0.00  0.00  0.00
  WS02006248WS02006247    1.00   0.03  0.00  0.00  0.97  0.00  0.00  0.00  0.25  0.00
  WS02006247WS02006245    1.00   0.02  0.00  0.00  0.97  0.00  0.00  0.01  0.00  0.00
  WS02006245WS02006243    1.00   0.01  0.00  0.00  0.92  0.00  0.00  0.06  0.03  0.00
  WS02006243WS02006242    1.00   0.01  0.00  0.00  0.99  0.00  0.00  0.00  0.28  0.00
  WS02006242WS02006240    1.00   0.00  0.00  0.00  1.00  0.00  0.00  0.00  0.00  0.00
  WS02006240WS02006239    1.00   0.00  0.00  0.00  0.95  0.00  0.00  0.05  0.01  0.00
  WS02006239WS02006238    1.00   0.00  0.00  0.00  1.00  0.00  0.00  0.00  0.03  0.00
  WS02006238WS02006235    1.00   0.00  0.00  0.00  1.00  0.00  0.00  0.00  0.00  0.00
  WS02006235WS02006234    1.00   0.00  0.00  0.00  0.95  0.00  0.05  0.00  0.00  0.00
  WS02006234WS02006232    1.00   0.00  0.00  0.00  1.00  0.00  0.00  0.00  0.10  0.00
  WS02006232WS02006231    1.00   0.00  0.00  0.00  0.99  0.00  0.01  0.00  0.00  0.00
  WS02006231WS02006230    1.00   0.00  0.00  0.00  0.51  0.00  0.49  0.00  0.00  0.00
  WS02006230WS02006229    1.00   0.00  0.00  0.00  0.98  0.00  0.00  0.02  0.01  0.00
  WS02006228WS02006109    1.00   0.00  0.00  0.00  1.00  0.00  0.00  0.00  0.00  0.00
  WS02006116WS02004401    1.00   0.03  0.00  0.00  0.97  0.00  0.00  0.00  0.00  0.00
  WS02006115WS02006116    1.00   0.03  0.00  0.00  0.97  0.00  0.00  0.01  0.00  0.00
  WS02006113WS02006111    1.00   0.02  0.00  0.00  0.00  0.98  0.00  0.00  0.14  0.00
  WS02006112WS02006115    1.00   0.02  0.00  0.00  0.97  0.00  0.00  0.00  0.00  0.00
  WS02006111WS02006112    1.00   0.02  0.00  0.00  0.97  0.00  0.00  0.00  0.98  0.00
  WS02006110WS02006113    1.00   0.01  0.01  0.00  0.98  0.00  0.00  0.00  0.00  0.00
  WS02006109WS02006110    1.00   0.00  0.01  0.00  0.98  0.00  0.01  0.00  0.00  0.00
  WS02004411WS02004412    1.00   0.04  0.00  0.00  0.96  0.00  0.00  0.00  0.00  0.00
  WS02004401WS02004402    1.00   0.03  0.00  0.00  0.97  0.00  0.00  0.00  0.00  0.00
  WS02004413WS02003067    1.00   0.04  0.02  0.00  0.00  0.00  0.94  0.00  0.00  0.00
  WS02004412WS02004413    1.00   0.04  0.00  0.00  0.96  0.00  0.00  0.00  0.03  0.00
  WS02004410WS02004411    1.00   0.04  0.00  0.00  0.96  0.00  0.00  0.00  0.04  0.00
  WS02004409WS02004410    1.00   0.04  0.00  0.00  0.96  0.00  0.00  0.00  0.04  0.00
  WS02004407WS02004409    1.00   0.04  0.00  0.00  0.96  0.00  0.00  0.00  0.89  0.00
  WS02004406WS02004407    1.00   0.00  0.04  0.00  0.96  0.00  0.00  0.00  0.00  0.00
  WS02004405WS02004406    1.00   0.00  0.00  0.00  1.00  0.00  0.00  0.00  0.00  0.00
  WS02004404WS02004405    1.00   0.00  0.00  0.00  1.00  0.00  0.00  0.00  0.00  0.00
  WS02004403WS02004404    1.00   0.00  0.03  0.00  0.97  0.00  0.00  0.00  0.01  0.00
  WS02004402WS02004403    1.00   0.03  0.00  0.00  0.97  0.00  0.00  0.00  0.00  0.00
  WS02004139WS02001211    1.00   0.00  0.01  0.00  0.99  0.00  0.00  0.00  0.00  0.00
  WS02004138WS02004139    1.00   0.02  0.01  0.00  0.97  0.00  0.00  0.00  0.98  0.00
  WS02003067WS02003066    1.00   0.06  0.00  0.00  0.94  0.00  0.00  0.00  0.00  0.00
  WS02001213WS02003059    1.00   0.00  0.01  0.00  0.99  0.00  0.00  0.00  0.00  0.00
  WS02001212WS02001213    1.00   0.03  0.00  0.00  0.72  0.00  0.25  0.00  0.00  0.00
  WS02001211WS02001212    1.00   0.00  0.03  0.00  0.97  0.00  0.00  0.00  0.00  0.00
  WS02003072WS02003073    1.00   0.00  0.00  0.00  0.00  0.00  0.00  1.00  0.00  0.00
  WS02003069WS02003072    1.00   0.00  0.00  0.00  0.99  0.01  0.00  0.00  0.42  0.00
  WS02003060WS02003069    1.00   0.00  0.00  0.00  0.98  0.02  0.00  0.00  0.26  0.00
  WS02003059WS02003060    1.00   0.00  0.00  0.00  1.00  0.00  0.00  0.00  0.03  0.00
  HS02004901HS02004770    1.00   0.05  0.00  0.00  0.95  0.00  0.00  0.00  0.02  0.00
  HS02004876HS02004881    1.00   0.03  0.00  0.00  0.97  0.00  0.00  0.00  0.00  0.00
  HS02004870HS02004876    1.00   0.01  0.00  0.00  0.99  0.00  0.00  0.00  0.95  0.00
  HS02004842HS02004848    1.00   0.00  0.05  0.00  0.95  0.00  0.00  0.00  0.69  0.00
  HS02004837HS02004842    1.00   0.00  0.00  0.00  0.99  0.01  0.00  0.00  0.11  0.00
  HS02004830HS02004837    1.00   0.00  0.00  0.00  1.00  0.00  0.00  0.00  0.99  0.00
  HS02004824HS02004830    1.00   0.00  0.00  0.00  1.00  0.00  0.00  0.00  0.00  0.00
  HS02004817HS02004824    1.00   0.00  0.00  0.00  1.00  0.00  0.00  0.00  1.00  0.00
  HS02004770HS02004777    1.00   0.00  0.05  0.00  0.95  0.00  0.00  0.00  0.07  0.00
  HS02004799HS02004480    1.00   0.00  0.03  0.00  0.94  0.00  0.03  0.00  0.00  0.00
  HS02004792HS02004799    1.00   0.00  0.00  0.00  0.98  0.02  0.00  0.00  0.98  0.00
  HS02004788HS02004792    1.00   0.00  0.00  0.00  0.99  0.01  0.00  0.00  0.98  0.00
  HS02004785HS02004788    1.00   0.00  0.00  0.00  1.00  0.00  0.00  0.00  0.00  0.00
  HS02004777HS02004785    1.00   0.00  0.00  0.00  1.00  0.00  0.00  0.00  0.20  0.00
  HS02004480HS02004478    1.00   0.05  0.00  0.00  0.71  0.00  0.00  0.24  0.00  0.00
  HS02004479HS02004480    1.00   0.03  0.00  0.00  0.97  0.00  0.00  0.00  0.16  0.00
  HS02004862HS02004870    1.00   0.00  0.00  0.00  1.00  0.00  0.00  0.00  0.06  0.00
  HS02004848HS02004852    1.00   0.05  0.00  0.00  0.95  0.00  0.00  0.00  0.71  0.00
  HS02004856HS02004862    1.00   0.00  0.07  0.00  0.93  0.00  0.00  0.00  0.74  0.00
  HS02004852HS02004856    1.00   0.05  0.01  0.00  0.94  0.00  0.00  0.00  0.83  0.00
  HS02004802HS02004478    1.00   0.05  0.01  0.00  0.94  0.00  0.00  0.00  0.01  0.00
  HS02004478WS02006287    1.00   0.06  0.00  0.00  0.86  0.08  0.00  0.00  0.77  0.00
  HS02004817HS02004807    1.00   0.00  0.05  0.00  0.95  0.00  0.00  0.00  0.00  0.00
  HS02004807HS02004802    1.00   0.05  0.00  0.00  0.95  0.00  0.00  0.00  0.01  0.00
  YS02001759YS02001757    1.00   0.00  0.00  0.00  1.00  0.00  0.00  0.00  0.17  0.00
  YS02001762YS02001759    1.00   0.00  0.00  0.00  1.00  0.00  0.00  0.00  0.04  0.00
  YS02001765YS02001762    1.00   0.00  0.00  0.00  1.00  0.00  0.00  0.00  0.22  0.00
  YS02001770YS02001767    1.00   0.00  0.00  0.00  1.00  0.00  0.00  0.00  0.00  0.00
  YS02001774YS02001770    1.00   0.00  0.05  0.00  0.94  0.00  0.00  0.00  0.07  0.00
  YS02001779YS02001774    1.00   0.00  0.00  0.00  1.00  0.00  0.00  0.00  0.26  0.00
  YS02001649YS02001757    1.00   0.00  0.00  0.00  1.00  0.00  0.00  0.00  0.19  0.00
  YS02001767YS02001765    1.00   0.00  0.00  0.00  1.00  0.00  0.00  0.00  0.01  0.00
  YS02006561YS02001783    1.00   0.07  0.00  0.00  0.00  0.92  0.00  0.00  0.73  0.00
  YS02001783YS02001784    1.00   0.00  0.08  0.00  0.92  0.00  0.00  0.00  0.00  0.00
  YS02001784YS02001785    1.00   0.00  0.00  0.00  1.00  0.00  0.00  0.00  0.25  0.00
  YS02001788YS02001790    1.00   0.00  0.00  0.00  0.08  0.92  0.00  0.00  0.76  0.00
  YS02001790YS02001791    1.00   0.00  0.00  0.00  0.02  0.98  0.00  0.00  0.55  0.00
  YS02001791YS02001793    1.00   0.00  0.00  0.00  0.00  1.00  0.00  0.00  0.00  0.00
  YS02001910YS02001907    1.00   0.00  0.00  0.00  0.97  0.00  0.00  0.03  0.13  0.00
  YS02001786YS02001788    1.00   0.00  0.00  0.00  0.08  0.92  0.00  0.00  0.00  0.00
  YS02001915YS02001910    1.00   0.00  0.00  0.00  0.99  0.01  0.00  0.00  0.24  0.00
  YS02001918YS02001915    1.00   0.00  0.01  0.00  0.98  0.02  0.00  0.00  0.82  0.00
  YS02001923YS02001920    1.00   0.00  0.00  0.00  1.00  0.00  0.00  0.00  1.00  0.00
  YS02001926YS02001923    1.00   0.00  0.04  0.00  0.00  0.00  0.96  0.00  0.00  0.00
  YS02001929YS02001926    1.00   0.00  0.05  0.00  0.95  0.00  0.00  0.00  0.87  0.00
  YS02001920YS02001918    1.00   0.00  0.01  0.00  0.99  0.00  0.00  0.00  0.00  0.00
  YS02001629YS02163301    1.00   0.07  0.00  0.00  0.93  0.00  0.00  0.00  0.00  0.00
  YS02001619YS02001622    1.00   0.05  0.00  0.00  0.95  0.00  0.00  0.00  0.00  0.00
  YS02001622YS02001625    1.00   0.05  0.00  0.00  0.95  0.00  0.00  0.00  0.13  0.00
  YS02001625YS02001629    1.00   0.05  0.03  0.00  0.91  0.00  0.01  0.00  0.00  0.00
  YS02163301YS02001633    1.00   0.00  0.07  0.00  0.93  0.00  0.00  0.00  0.00  0.00
  YS02163601YS02164001    1.00   0.00  0.04  0.00  0.96  0.00  0.00  0.00  0.00  0.00
  YS02164001YS02001641    1.00   0.01  0.03  0.00  0.96  0.00  0.00  0.00  0.07  0.00
  YS02001641YS02001644    1.00   0.00  0.01  0.00  0.99  0.00  0.00  0.00  0.00  0.00
  YS02001647YS02001649    1.00   0.00  0.07  0.00  0.93  0.00  0.00  0.00  0.01  0.00
  YS02006553YS02006556    1.00   0.02  0.00  0.00  0.98  0.00  0.00  0.00  0.03  0.00
  YS02006556YS02006558    1.00   0.00  0.00  0.00  1.00  0.00  0.00  0.00  0.00  0.00
  YSB6556YSB1171          1.00   0.03  0.02  0.00  0.95  0.00  0.00  0.00  0.00  0.00
  YS02001907YS02006553    1.00   0.00  0.02  0.00  0.97  0.00  0.00  0.00  0.00  0.00
  YS02006558YS02006561    1.00   0.07  0.00  0.00  0.00  0.92  0.00  0.00  0.70  0.00
  YS02001633YS02163601    1.00   0.00  0.01  0.00  0.99  0.00  0.00  0.00  0.19  0.00
  YS02001644YS02001647    1.00   0.00  0.07  0.00  0.93  0.00  0.00  0.00  0.00  0.00
  YS02001745YS02001748    1.00   0.00  0.00  0.00  0.86  0.02  0.00  0.12  0.27  0.00
  YS02001748YS02001751    1.00   0.00  0.00  0.00  0.98  0.02  0.00  0.00  0.24  0.00
  YS02001751YS02001754    1.00   0.00  0.00  0.00  0.92  0.00  0.00  0.08  0.02  0.00
  YS02001754YS02001757    1.00   0.00  0.00  0.00  0.99  0.01  0.00  0.00  0.26  0.00
  YS02001882YS02001884    1.00   0.06  0.00  0.00  0.93  0.00  0.00  0.00  0.00  0.00
  YS02001884YS02001887    1.00   0.04  0.01  0.00  0.95  0.00  0.00  0.00  0.00  0.00
  YS02001890YS02001895    1.00   0.00  0.07  0.00  0.93  0.00  0.00  0.00  0.00  0.00
  YS02001895YS02001898    1.00   0.07  0.00  0.00  0.92  0.00  0.01  0.00  0.00  0.00
  YS02001898YS02001901    1.00   0.07  0.00  0.00  0.93  0.00  0.00  0.00  0.02  0.00
  YS02001901YS02001904    1.00   0.07  0.00  0.00  0.93  0.00  0.00  0.00  0.00  0.00
  YS02001904YS02001907    1.00   0.00  0.06  0.00  0.93  0.00  0.00  0.00  0.00  0.00
  YS02001887YS02001890    1.00   0.00  0.00  0.00  0.97  0.00  0.03  0.00  0.00  0.00
  YS02001652YS02001649    1.00   0.00  0.00  0.00  1.00  0.00  0.00  0.00  0.25  0.00
  YS02001655YS02001652    1.00   0.00  0.00  0.00  0.92  0.00  0.00  0.08  0.02  0.00
  YS02001658YS02001655    1.00   0.00  0.06  0.00  0.91  0.03  0.00  0.00  0.11  0.00
  YS02001661YS02001658    1.00   0.06  0.00  0.00  0.85  0.09  0.00  0.00  0.26  0.00
  YS02001664YS02001661    1.00   0.05  0.00  0.00  0.72  0.23  0.00  0.00  0.86  0.00
  YSB1154YSB6556          1.00   0.05  0.00  0.00  0.95  0.00  0.00  0.00  0.02  0.00
  YSB1174YSB1171          1.00   0.03  0.01  0.00  0.96  0.00  0.00  0.00  0.00  0.00
  YSB1171HS02004479       1.00   0.03  0.00  0.00  0.97  0.00  0.00  0.00  0.13  0.00
  HS02004881HS02006253    1.00   0.03  0.00  0.00  0.67  0.01  0.00  0.29  0.47  0.00
  YS02001793JiankangQianchi    1.00   0.00  0.00  0.00  0.34  0.66  0.00  0.00  0.33  0.00
  YS02001757CaochengTiaoxuchi    1.00   0.00  0.09  0.00  0.91  0.00  0.00  0.00  0.00  0.00
  WSF200WS02003060        1.00   0.00  0.07  0.00  0.30  0.63  0.00  0.00  0.21  0.00
  1                       1.00   0.00  0.00  0.00  0.00  1.00  0.00  0.00  0.36  0.00
  2                       1.00   0.81  0.00  0.00  0.00  0.19  0.00  0.00  0.06  0.00
  3                       1.00   0.35  0.00  0.00  0.00  0.65  0.00  0.00  0.31  0.00
  4                       1.00   1.00  0.00  0.00  0.00  0.00  0.00  0.00  0.00  0.00
  
  
  *************************
  Conduit Surcharge Summary
  *************************
  
  ----------------------------------------------------------------------------
                                                           Hours        Hours 
                         --------- Hours Full --------   Above Full   Capacity
  Conduit                Both Ends  Upstream  Dnstream   Normal Flow   Limited
  ----------------------------------------------------------------------------
  WS02006229WS02006228        0.78      0.88      0.78      3.25         0.78
  WS02006256WS02006235        5.59      5.59      6.78      3.11         0.01
  WS02006252WS02006251        0.43      0.43      1.21      1.01         0.01
  WS02006251WS02006249        0.01      0.01      0.01      0.41         0.01
  WS02006249WS02006248        0.01      0.01      0.01      3.23         0.01
  WS02006247WS02006245        0.01      0.01      0.01      3.75         0.01
  WS02006243WS02006242        0.01      0.01      0.20      0.01         0.01
  WS02006242WS02006240        0.01      0.01      0.39      1.20         0.01
  WS02006240WS02006239        0.02      0.02      0.04      0.07         0.01
  WS02006239WS02006238        0.28      0.28      0.31      0.12         0.01
  WS02006238WS02006235        0.26      0.26      0.55      0.01         0.01
  WS02006235WS02006234        0.01      0.01      0.20      5.55         0.01
  WS02006234WS02006232        0.04      0.04      0.60      0.01         0.01
  WS02006232WS02006231        0.01      0.01      0.60      0.01         0.01
  WS02006231WS02006230        0.01      0.01      0.01      5.68         0.01
  WS02006230WS02006229        2.13      2.84      2.13      5.82         2.13
  WS02006228WS02006109        0.81      1.37      0.81      4.28         0.81
  WS02006111WS02006112        0.01      0.01      3.34      0.01         0.01
  WS02006110WS02006113        0.01      0.01      1.10      0.01         0.01
  WS02006109WS02006110        0.01      0.01      1.38      0.01         0.01
  WS02004404WS02004405        0.01      0.01      0.01      5.63         0.01
  WS02003072WS02003073        0.01      0.01      0.01      3.00         0.01
  YS02001759YS02001757        5.22      5.22      5.36      0.01         0.01
  YS02001762YS02001759        5.16      5.16      5.22      0.01         0.01
  YS02001765YS02001762        5.06      5.06      5.16      0.01         0.01
  YS02001770YS02001767        4.48      4.48      4.66      0.01         0.65
  YS02001774YS02001770        4.16      4.16      5.13      0.01         0.01
  YS02001779YS02001774        2.13      2.13      5.13      0.01         0.01
  YS02001649YS02001757        5.18      5.18      5.36      0.01         0.01
  YS02001767YS02001765        4.66      4.66      5.06      0.01         0.01
  YS02001629YS02163301        4.05      4.05      4.25      0.01         0.01
  YS02001622YS02001625        0.01      0.01      3.33      0.01         0.01
  YS02001625YS02001629        0.01      0.01      3.33      0.01         0.01
  YS02163301YS02001633        4.25      4.25      5.08      0.01         0.01
  YS02163601YS02164001        5.06      5.06      5.18      0.01         0.01
  YS02164001YS02001641        5.06      5.06      5.11      0.01         0.01
  YS02001641YS02001644        5.10      5.11      5.12      0.01         0.33
  YS02001647YS02001649        3.18      3.18      5.18      0.01         0.01
  YS02001633YS02163601        5.01      5.01      5.18      0.01         0.01
  YS02001644YS02001647        3.18      3.18      5.12      0.01         0.01
  YS02001751YS02001754        0.01      0.01      2.61      0.01         0.01
  YS02001754YS02001757        3.24      3.24      5.36      0.01         0.01
  YS02001652YS02001649        3.38      3.38      5.18      0.01         0.01
  YS02001655YS02001652        0.01      0.01      2.99      0.01         0.01
  YS02001793JiankangQianchi        0.01      0.01      0.99      0.01         0.01
  YS02001757CaochengTiaoxuchi        0.01      0.01      5.36      0.01         0.01
  
  
  ***************
  Pumping Summary
  ***************
  
  ---------------------------------------------------------------------------------------------------------
                                                  Min       Avg       Max     Total     Power    % Time Off
                        Percent   Number of      Flow      Flow      Flow    Volume     Usage    Pump Curve
  Pump                 Utilized   Start-Ups       LPS       LPS       LPS  10^6 ltr     Kw-hr    Low   High
  ---------------------------------------------------------------------------------------------------------
  CC-Pump-1               49.71           8      0.00    129.22    200.00     1.744      5.17    0.0   15.9
  CC-Pump-2               49.71           6      0.00    124.75    200.00     1.684      5.02    0.0   11.6
  JK-Pump-1               63.81           8      0.00    115.73    299.89     1.704     31.37    0.0    0.0
  JK-Pump-2               70.21           6      0.00    163.39    300.00     2.231     39.03    0.0    0.0
  XR-Pump-1               70.19           6      0.00     65.31     95.00     1.282      6.74    0.0    0.0
  XR-Pump-2               76.58           8      0.00     60.87     95.00     1.311      7.01    0.0    0.0
  XR-Pump-3               65.94          11      0.00     51.46     95.00     0.969      4.83    0.0    0.0
  XR-Pump-4               48.92           7      0.00     53.93     95.00     0.741      4.34    0.0    0.0
  

  Analysis begun on:  Thu Jan  6 01:03:22 2022
  Analysis ended on:  Thu Jan  6 01:03:25 2022
  Total elapsed time: 00:00:03