
  EPA STORM WATER MANAGEMENT MODEL - VERSION 5.1 (Build 5.3.0.dev0)
  --------------------------------------------------------------

  WARNING 04: minimum elevation drop used for Conduit WS02004404WS02004405
  WARNING 03: negative offset ignored for Link YS02001904YS02001907
  
  *********************************************************
  NOTE: The summary statistics displayed in this report are
  based on results found at every computational time step,  
  not just on results from each reporting time step.
  *********************************************************
  
  ****************
  Analysis Options
  ****************
  Flow Units ............... LPS
  Process Models:
    Rainfall/Runoff ........ YES
    RDII ................... NO
    Snowmelt ............... NO
    Groundwater ............ NO
    Flow Routing ........... YES
    Ponding Allowed ........ NO
    Water Quality .......... NO
  Infiltration Method ...... HORTON
  Flow Routing Method ...... DYNWAVE
  Surcharge Method ......... EXTRAN
  Starting Date ............ 08/28/2015 08:00:00
  Ending Date .............. 08/28/2015 15:50:00
  Antecedent Dry Days ...... 8.0
  Report Time Step ......... 00:01:00
  Wet Time Step ............ 00:01:00
  Dry Time Step ............ 00:01:00
  Routing Time Step ........ 5.00 sec
  Variable Time Step ....... YES
  Maximum Trials ........... 8
  Number of Threads ........ 4
  Head Tolerance ........... 0.001500 m
  
  
  **************************        Volume         Depth
  Runoff Quantity Continuity     hectare-m            mm
  **************************     ---------       -------
  Total Precipitation ......         3.679         8.055
  Evaporation Loss .........         0.000         0.000
  Infiltration Loss ........         0.936         2.049
  Surface Runoff ...........         1.790         3.918
  Final Storage ............         0.955         2.090
  Continuity Error (%) .....        -0.018
  
  
  **************************        Volume        Volume
  Flow Routing Continuity        hectare-m      10^6 ltr
  **************************     ---------     ---------
  Dry Weather Inflow .......         0.616         6.165
  Wet Weather Inflow .......         1.789        17.887
  Groundwater Inflow .......         0.000         0.000
  RDII Inflow ..............         0.000         0.000
  External Inflow ..........         0.102         1.024
  External Outflow .........         1.419        14.188
  Flooding Loss ............         0.545         5.453
  Evaporation Loss .........         0.000         0.000
  Exfiltration Loss ........         0.000         0.000
  Initial Stored Volume ....         0.076         0.761
  Final Stored Volume ......         0.641         6.413
  Continuity Error (%) .....        -0.843
  
  
  *************************
  Highest Continuity Errors
  *************************
  Node YS02001774 (37.41%)
  Node HS02004842 (22.75%)
  Node YS02001884 (13.79%)
  Node YSB1171 (4.89%)
  Node HS02004817 (3.99%)
  
  
  ***************************
  Time-Step Critical Elements
  ***************************
  Link WS02006252WS02006251 (48.10%)
  Link 3 (40.60%)
  Link WS02006280WS02006229 (2.42%)
  Link WS02006238WS02006235 (2.30%)
  
  
  ********************************
  Highest Flow Instability Indexes
  ********************************
  Link WS02006113WS02006111 (46)
  Link YS02001619YS02001622 (24)
  Link YS02001629YS02163301 (23)
  Link YS02163301YS02001633 (22)
  Link YS02163601YS02164001 (22)
  
  
  *************************
  Routing Time Step Summary
  *************************
  Minimum Time Step           :     0.19 sec
  Average Time Step           :     0.96 sec
  Maximum Time Step           :     5.00 sec
  Percent in Steady State     :    -0.00
  Average Iterations per Step :     4.03
  Percent Not Converging      :    20.25
  
  
  ***************************
  Subcatchment Runoff Summary
  ***************************
  
  ------------------------------------------------------------------------------------------------------------------------------
                            Total      Total      Total      Total     Imperv       Perv      Total       Total     Peak  Runoff
                           Precip      Runon       Evap      Infil     Runoff     Runoff     Runoff      Runoff   Runoff   Coeff
  Subcatchment                 mm         mm         mm         mm         mm         mm         mm    10^6 ltr      LPS
  ------------------------------------------------------------------------------------------------------------------------------
  sub0                       8.06       0.00       0.00       0.56       6.23       0.00       6.23        0.01     2.15   0.773
  sub1                       8.06       0.00       0.00       0.89       5.91       0.00       5.91        0.04    11.80   0.734
  sub2                       8.06       0.00       0.00       2.98       4.17       0.00       4.17        0.04    10.54   0.517
  sub3                       8.06       0.00       0.00       2.98       4.13       0.00       4.13        0.09    21.95   0.513
  sub4                       8.06       0.00       0.00       0.89       5.77       0.00       5.77        0.12    24.90   0.716
  sub5                       8.06       0.00       0.00       0.56       6.18       0.00       6.18        0.07    20.99   0.767
  sub7                       8.06       0.00       0.00       0.72       6.08       0.00       6.08        0.02     7.27   0.754
  sub8                       8.06       0.00       0.00       0.72       6.07       0.00       6.07        0.04    12.92   0.753
  sub9                       8.06       0.00       0.00       0.72       6.06       0.00       6.06        0.03     9.59   0.753
  sub10                      8.06       0.00       0.00       0.64       6.12       0.00       6.12        0.07    20.88   0.760
  sub11                      8.06       0.00       0.00       0.64       6.14       0.00       6.14        0.07    24.25   0.762
  sub12                      8.06       0.00       0.00       1.05       5.82       0.00       5.82        0.05    20.11   0.722
  sub14                      8.06       0.00       0.00       0.72       6.06       0.00       6.06        0.06    18.77   0.753
  sub15                      8.06       0.00       0.00       2.42       4.66       0.00       4.66        0.08    25.52   0.578
  sub16                      8.06       0.00       0.00       2.66       4.48       0.00       4.48        0.05    17.80   0.556
  sub17                      8.06       0.00       0.00       2.58       4.54       0.00       4.54        0.04    14.42   0.564
  sub22                      8.06       0.00       0.00       3.46       3.80       0.00       3.80        0.24    82.82   0.472
  sub23                      8.06       0.00       0.00       2.98       4.20       0.00       4.20        0.20    70.38   0.522
  sub60                      8.06       0.00       0.00       0.97       4.43       0.00       4.43        1.34   135.38   0.550
  sub61                      8.06       0.00       0.00       1.37       4.63       0.00       4.63        1.43   167.06   0.575
  sub62                      8.06       0.00       0.00       0.64       5.00       0.00       5.00        1.54   171.55   0.620
  sub63                      8.06       0.00       0.00       2.34       4.09       0.00       4.09        1.24   154.92   0.508
  sub64                      8.06       0.00       0.00       1.21       4.24       0.00       4.24        1.29   128.75   0.527
  sub65                      8.06       0.00       0.00       1.05       4.30       0.00       4.30        1.32   130.82   0.534
  sub66                      8.06       0.00       0.00       2.34       3.67       0.00       3.67        1.13   117.38   0.456
  sub67                      8.06       0.00       0.00       0.64       5.39       0.00       5.39        1.66   216.94   0.669
  sub68                      8.06       0.00       0.00       1.13       4.90       0.00       4.90        1.51   183.95   0.608
  sub69                      8.06       0.00       0.00       1.21       5.19       0.00       5.19        1.21   179.57   0.644
  sub70                      8.06       5.30       0.00       4.54       6.64       0.00       6.64        1.52   155.14   0.497
  sub71                      8.06       0.00       0.00       0.64       4.82       0.00       4.82        1.14   120.44   0.598
  sub72                      8.06       0.00       0.00       0.56       3.59       0.00       3.59        0.73    59.05   0.445
  sub73                      8.06       6.46       0.00       4.94       6.98       0.00       6.98        1.64   136.02   0.481
  sub74                      8.06       0.00       0.00       6.04       1.56       0.00       1.56        0.62    99.54   0.193
  
  
  ******************
  Node Depth Summary
  ******************
  
  ---------------------------------------------------------------------------------
                                 Average  Maximum  Maximum  Time of Max    Reported
                                   Depth    Depth      HGL   Occurrence   Max Depth
  Node                 Type       Meters   Meters   Meters  days hr:min      Meters
  ---------------------------------------------------------------------------------
  WS02001211           JUNCTION     0.60     0.75     5.59     0  01:40        0.75
  WS02001212           JUNCTION     0.33     0.45     5.51     0  05:53        0.45
  WS02001213           JUNCTION     0.56     0.68     5.44     0  03:41        0.68
  WS02003069           JUNCTION     0.39     0.51     5.09     0  03:41        0.51
  WS02003072           JUNCTION     0.46     0.57     4.94     0  03:42        0.57
  WS02003073           JUNCTION     0.27     0.35     4.41     0  03:42        0.35
  WS02003060           JUNCTION     0.35     0.45     5.38     0  03:41        0.45
  WS02003066           JUNCTION     0.22     0.29     5.85     0  02:27        0.29
  WS02003059           JUNCTION     0.62     0.74     5.42     0  03:41        0.74
  WS02003067           JUNCTION     0.54     0.70     6.02     0  02:26        0.70
  WS02004401           JUNCTION     0.63     0.85     6.85     0  02:23        0.85
  WS02004402           JUNCTION     0.66     0.87     6.83     0  02:23        0.87
  WS02004403           JUNCTION     0.68     0.89     6.82     0  02:23        0.89
  WS02004404           JUNCTION     0.76     0.96     6.81     0  02:23        0.96
  WS02004406           JUNCTION     0.77     0.95     6.78     0  02:23        0.95
  WS02004409           JUNCTION     0.45     0.66     6.43     0  02:26        0.66
  WS02004410           JUNCTION     0.47     0.67     6.39     0  02:26        0.67
  WS02004411           JUNCTION     0.48     0.68     6.36     0  02:26        0.68
  WS02004412           JUNCTION     0.50     0.69     6.33     0  02:27        0.69
  WS02004413           JUNCTION     0.66     0.85     6.32     0  02:26        0.85
  WS02004405           JUNCTION     0.76     0.95     6.80     0  02:23        0.95
  WS02006109           JUNCTION     0.70     0.97     7.59     0  02:19        0.97
  WS02006110           JUNCTION     0.70     0.92     7.51     0  02:19        0.92
  WS02006111           JUNCTION     0.20     0.29     6.99     0  02:20        0.29
  WS02006112           JUNCTION     0.79     1.05     6.93     0  02:23        1.04
  WS02006113           JUNCTION     0.31     0.45     7.35     0  02:20        0.45
  WS02006115           JUNCTION     0.52     0.75     6.89     0  02:23        0.74
  WS02006116           JUNCTION     0.60     0.83     6.87     0  02:23        0.83
  WS02006230           JUNCTION     0.65     0.98     7.72     0  02:19        0.98
  WS02006231           JUNCTION     0.43     0.62     7.74     0  02:19        0.62
  WS02006232           JUNCTION     0.56     0.75     7.79     0  03:31        0.75
  WS02006234           JUNCTION     0.47     0.71     7.87     0  03:31        0.71
  WS02006235           JUNCTION     0.50     0.75     7.91     0  03:31        0.75
  WS02006238           JUNCTION     0.52     0.78     7.92     0  03:31        0.78
  WS02006240           JUNCTION     0.41     0.71     8.00     0  03:31        0.71
  WS02006242           JUNCTION     0.45     0.78     8.05     0  03:31        0.78
  WS02006243           JUNCTION     0.33     0.67     8.09     0  03:31        0.67
  WS02006245           JUNCTION     0.31     0.64     8.12     0  03:31        0.64
  WS02006247           JUNCTION     0.33     0.65     8.15     0  03:31        0.64
  WS02006248           JUNCTION     0.28     0.58     8.17     0  03:31        0.58
  WS02006249           JUNCTION     0.32     0.60     8.19     0  03:31        0.60
  WS02006239           JUNCTION     0.47     0.75     7.96     0  03:31        0.75
  WS02006251           JUNCTION     0.31     0.61     8.28     0  03:30        0.61
  WS02006252           JUNCTION     0.27     0.59     8.83     0  03:30        0.59
  WS02006253           JUNCTION     0.34     0.64     8.28     0  03:30        0.63
  WS02006256           JUNCTION     1.00     2.35     9.28     0  00:00        1.21
  WS02004138           JUNCTION     0.13     0.19     7.44     0  01:40        0.19
  WS02004407           JUNCTION     0.20     0.29     6.61     0  02:23        0.29
  WS02006228           JUNCTION     0.70     1.01     7.66     0  02:19        1.01
  WS02006229           JUNCTION     0.67     1.01     7.70     0  02:19        1.00
  WS02006280           JUNCTION     0.06     0.18     8.45     0  02:15        0.18
  WS02006284           JUNCTION     0.36     0.53     8.93     0  02:14        0.53
  WS02006287           JUNCTION     0.09     0.27     9.22     0  02:14        0.27
  WSF200               JUNCTION     0.20     0.30     5.53     0  02:26        0.30
  HS02004901           JUNCTION     0.12     0.27    10.10     0  02:12        0.27
  HS02004881           JUNCTION     0.01     0.03     9.06     0  02:15        0.03
  HS02004876           JUNCTION     0.04     0.11     9.14     0  02:08        0.11
  HS02004870           JUNCTION     0.01     0.06     9.34     0  02:15        0.06
  HS02004862           JUNCTION     0.02     0.06     9.45     0  02:16        0.06
  HS02004856           JUNCTION     0.08     0.12     9.54     0  02:15        0.12
  HS02004852           JUNCTION     0.01     0.04     9.55     0  02:16        0.04
  HS02004848           JUNCTION     0.01     0.04     9.64     0  02:15        0.04
  HS02004842           JUNCTION     0.33     0.37     9.64     0  02:15        0.37
  HS02004837           JUNCTION     0.03     0.06     9.64     0  02:15        0.06
  HS02004830           JUNCTION     0.04     0.07     9.54     0  02:15        0.07
  HS02004824           JUNCTION     0.02     0.05     9.45     0  02:18        0.05
  HS02004817           JUNCTION     0.43     0.57     9.42     0  02:15        0.57
  HS02004807           JUNCTION     0.12     0.25     9.42     0  02:15        0.25
  HS02004802           JUNCTION     0.16     0.28     9.41     0  02:15        0.28
  HS02004799           JUNCTION     0.11     0.32     9.53     0  02:13        0.32
  HS02004792           JUNCTION     0.03     0.13     9.65     0  02:12        0.13
  HS02004788           JUNCTION     0.02     0.10    10.00     0  02:13        0.10
  HS02004785           JUNCTION     0.04     0.17    10.07     0  02:12        0.17
  HS02004777           JUNCTION     0.14     0.29    10.09     0  02:12        0.29
  HS02004770           JUNCTION     0.11     0.26    10.10     0  02:12        0.26
  HS02004480           JUNCTION     0.07     0.25     9.49     0  02:13        0.25
  HS02004479           JUNCTION     0.11     0.29     9.49     0  02:13        0.29
  HS02004478           JUNCTION     0.06     0.17     9.40     0  02:14        0.17
  YS02001745           JUNCTION     0.66     0.85     8.37     0  05:11        0.85
  YS02001748           JUNCTION     1.05     1.30     8.38     0  03:59        1.29
  YS02001751           JUNCTION     1.23     1.76     8.64     0  02:51        1.49
  YS02001754           JUNCTION     1.48     1.85     8.46     0  02:52        1.78
  YS02001762           JUNCTION     1.68     2.02     8.42     0  03:59        2.00
  YS02001765           JUNCTION     1.63     1.96     8.41     0  03:59        1.95
  YS02001767           JUNCTION     1.60     1.92     8.41     0  03:45        1.90
  YS02001770           JUNCTION     1.59     1.90     8.39     0  03:59        1.89
  YS02001774           JUNCTION     1.66     1.96     8.39     0  03:47        1.96
  YS02001779           JUNCTION     1.41     1.68     8.37     0  03:42        1.68
  YS02001882           JUNCTION     0.36     0.63     7.34     0  02:46        0.62
  YS02001884           JUNCTION     0.45     0.72     7.34     0  02:49        0.72
  YS02001759           JUNCTION     1.71     2.05     8.42     0  03:59        2.04
  YS02001887           JUNCTION     0.53     0.80     7.34     0  02:45        0.80
  YS02001890           JUNCTION     0.56     0.83     7.34     0  02:45        0.83
  YS02001898           JUNCTION     0.33     0.59     7.32     0  02:57        0.58
  YS02001901           JUNCTION     0.44     0.71     7.32     0  02:47        0.71
  YS02001904           JUNCTION     0.42     0.69     7.32     0  02:57        0.69
  YS02001907           JUNCTION     0.75     1.05     7.34     0  02:39        1.03
  YS02001910           JUNCTION     0.54     0.81     7.32     0  02:51        0.81
  YS02001915           JUNCTION     0.34     0.60     7.32     0  02:51        0.59
  YS02001918           JUNCTION     0.11     0.25     7.31     0  02:49        0.25
  YS02001619           JUNCTION     1.20     1.61     8.54     0  03:03        1.59
  YS02001629           JUNCTION     1.55     1.85     8.40     0  03:10        1.84
  YS02001641           JUNCTION     1.65     1.94     8.37     0  03:45        1.92
  YS02001644           JUNCTION     1.65     1.92     8.35     0  03:37        1.92
  YS02001652           JUNCTION     1.50     2.15     8.74     0  02:52        1.91
  YS02001655           JUNCTION     1.26     2.20     9.05     0  02:49        1.71
  YS02001920           JUNCTION     0.21     0.32     7.32     0  02:49        0.32
  YS02001923           JUNCTION     0.08     0.11     7.37     0  03:01        0.11
  YS02001926           JUNCTION     0.17     0.22     7.67     0  03:01        0.22
  YS02001929           JUNCTION     0.08     0.11     7.81     0  03:01        0.11
  YS02001658           JUNCTION     0.99     2.30     9.44     0  03:03        1.44
  YS02001661           JUNCTION     0.77     1.89     9.29     0  03:45        1.18
  YS02001664           JUNCTION     0.33     0.56     8.49     0  03:46        0.56
  YS02001622           JUNCTION     1.22     1.62     8.52     0  03:07        1.59
  YS02001633           JUNCTION     1.64     1.94     8.40     0  03:43        1.93
  YS02001649           JUNCTION     1.69     2.05     8.44     0  03:44        2.05
  YS02001757           JUNCTION     1.81     2.16     8.42     0  03:59        2.15
  YS02001895           JUNCTION     0.32     0.58     7.33     0  02:49        0.58
  YS02001625           JUNCTION     1.50     1.78     8.38     0  03:07        1.78
  YS02163301           JUNCTION     1.58     1.89     8.40     0  03:12        1.87
  YS02163601           JUNCTION     1.69     1.99     8.39     0  03:43        1.97
  YS02164001           JUNCTION     1.63     1.92     8.38     0  03:44        1.91
  YS02001647           JUNCTION     1.48     1.80     8.41     0  03:45        1.79
  YSB1154              JUNCTION     0.25     0.44     9.50     0  02:13        0.44
  YSB6556              JUNCTION     0.14     0.33     9.50     0  02:13        0.33
  YSB1174              JUNCTION     0.20     0.39     9.50     0  02:13        0.39
  YSB1171              JUNCTION     0.40     0.59     9.50     0  02:13        0.59
  YS02006553           JUNCTION     0.76     1.06     7.35     0  02:50        1.05
  YS02006561           JUNCTION     0.18     0.35     7.01     0  02:38        0.32
  YS02006556           JUNCTION     0.73     1.01     7.32     0  02:50        1.00
  YS02006558           JUNCTION     0.77     1.06     7.32     0  02:48        1.04
  YS02001783           JUNCTION     0.37     1.22     7.36     0  02:38        0.89
  YS02001784           JUNCTION     0.40     1.33     7.40     0  02:38        0.90
  YS02001786           JUNCTION     0.38     1.41     7.44     0  02:38        0.86
  YS02001788           JUNCTION     0.34     1.27     7.25     0  02:38        0.91
  YS02001790           JUNCTION     0.48     1.69     7.33     0  02:35        1.15
  YS02001791           JUNCTION     0.51     1.61     7.08     0  04:21        1.22
  YS02001793           JUNCTION     0.80     1.85     6.68     0  02:38        1.80
  WS02004139           JUNCTION     0.54     0.70     5.61     0  01:40        0.69
  WSC                  OUTFALL      0.27     0.35     1.02     0  03:43        0.35
  3                    OUTFALL      0.07     0.23     6.23     0  00:00        0.20
  4                    OUTFALL      0.01     0.10     7.10     0  03:31        0.09
  5                    OUTFALL      0.00     0.00     5.00     0  00:00        0.00
  JK-storage           STORAGE      3.31     5.80     6.60     0  02:37        5.80
  CC-storage           STORAGE      1.07     1.38     8.38     0  05:08        1.38
  XR-storage           STORAGE      7.49     7.72     5.72     0  02:25        7.72
  
  
  *******************
  Node Inflow Summary
  *******************
  
  -------------------------------------------------------------------------------------------------
                                  Maximum  Maximum                  Lateral       Total        Flow
                                  Lateral    Total  Time of Max      Inflow      Inflow     Balance
                                   Inflow   Inflow   Occurrence      Volume      Volume       Error
  Node                 Type           LPS      LPS  days hr:min    10^6 ltr    10^6 ltr     Percent
  -------------------------------------------------------------------------------------------------
  WS02001211           JUNCTION      7.35   381.56     0  01:40       0.207        5.35       0.429
  WS02001212           JUNCTION      0.00   377.62     0  01:41           0        5.32       0.290
  WS02001213           JUNCTION      0.00   376.72     0  01:41           0        5.31       0.241
  WS02003069           JUNCTION      0.32   741.92     0  03:41     0.00902        11.7       0.166
  WS02003072           JUNCTION      0.00   741.87     0  03:42           0        11.7       0.223
  WS02003073           JUNCTION      1.82   743.66     0  03:42      0.0514        11.7       0.241
  WS02003060           JUNCTION     16.53   741.60     0  03:40       0.466        11.7       0.165
  WS02003066           JUNCTION      0.00   523.33     0  02:27           0        5.99       0.064
  WS02003059           JUNCTION      0.00   375.17     0  01:42           0         5.3       0.541
  WS02003067           JUNCTION      0.00   523.19     0  02:27           0           6       0.139
  WS02004401           JUNCTION      0.00   535.16     0  02:21           0        6.22       0.333
  WS02004402           JUNCTION      0.00   533.60     0  02:22           0         6.2       0.315
  WS02004403           JUNCTION      0.00   533.05     0  02:22           0        6.18       0.287
  WS02004404           JUNCTION      0.16   532.23     0  02:22     0.00457        6.16       0.217
  WS02004406           JUNCTION      0.00   532.28     0  02:23           0        6.13       0.529
  WS02004409           JUNCTION      0.00   531.78     0  02:23           0        6.09       0.235
  WS02004410           JUNCTION      0.00   528.20     0  02:25           0        6.08       0.266
  WS02004411           JUNCTION      0.00   525.63     0  02:25           0        6.06       0.273
  WS02004412           JUNCTION      0.00   524.14     0  02:26           0        6.05       0.299
  WS02004413           JUNCTION      0.00   523.32     0  02:26           0        6.03       0.450
  WS02004405           JUNCTION      0.04   531.99     0  02:23     0.00107        6.15       0.328
  WS02006109           JUNCTION      1.23   535.58     0  02:19      0.0347         6.3       0.328
  WS02006110           JUNCTION      0.00   535.62     0  02:19           0        6.28       0.318
  WS02006111           JUNCTION      0.00   555.31     0  02:20           0        6.25       0.071
  WS02006112           JUNCTION     14.42   550.54     0  02:20       0.039        6.28       0.437
  WS02006113           JUNCTION      0.00   536.12     0  02:19           0        6.26       0.157
  WS02006115           JUNCTION      0.00   549.66     0  02:21           0        6.26       0.313
  WS02006116           JUNCTION      0.00   539.68     0  02:21           0        6.24       0.302
  WS02006230           JUNCTION     10.28   397.92     0  04:12        0.29        5.06       0.290
  WS02006231           JUNCTION      0.00   388.89     0  04:11           0        4.78       0.199
  WS02006232           JUNCTION      0.00   388.96     0  04:11           0         4.8       0.344
  WS02006234           JUNCTION      0.00   390.46     0  04:10           0        4.81       0.168
  WS02006235           JUNCTION      0.00   390.62     0  04:10           0        4.86       0.226
  WS02006238           JUNCTION      0.00   332.12     0  03:52           0        2.88       0.264
  WS02006240           JUNCTION      0.00   335.35     0  03:51           0        2.85       0.421
  WS02006242           JUNCTION      0.00   337.74     0  03:51           0        2.85       0.514
  WS02006243           JUNCTION      0.00   340.27     0  03:51           0        2.84      -0.193
  WS02006245           JUNCTION      0.00   342.02     0  03:50           0        2.84       0.424
  WS02006247           JUNCTION      0.00   344.64     0  04:50           0        2.85       0.263
  WS02006248           JUNCTION      0.00   349.85     0  04:50           0        2.85       0.050
  WS02006249           JUNCTION      0.00   398.58     0  03:30           0        2.95       0.486
  WS02006239           JUNCTION      0.00   333.16     0  03:52           0        2.86       0.370
  WS02006251           JUNCTION      0.08   401.75     0  03:30     0.00217        2.99       0.277
  WS02006252           JUNCTION      0.00   399.95     0  03:30           0        2.74       0.015
  WS02006253           JUNCTION      2.15    66.56     0  02:14     0.00504       0.248       1.591
  WS02006256           JUNCTION      0.00   600.00     0  00:00           0        4.45       0.055
  WS02004138           JUNCTION      0.00   379.98     0  05:50           0        5.16       0.049
  WS02004407           JUNCTION      0.00   531.95     0  02:23           0         6.1       0.111
  WS02006228           JUNCTION      0.00   534.33     0  02:19           0        6.28       0.252
  WS02006229           JUNCTION      0.00   534.55     0  02:19           0        6.29       0.202
  WS02006280           JUNCTION      0.00   330.26     0  02:15           0        1.24       0.005
  WS02006284           JUNCTION      0.10   330.22     0  02:14      0.0027        1.25       0.092
  WS02006287           JUNCTION      0.00   330.08     0  02:14           0        1.24       0.058
  WSF200               JUNCTION      0.00   523.38     0  02:27           0        5.99       0.058
  HS02004901           JUNCTION     17.80    17.80     0  02:08      0.0469       0.047       3.884
  HS02004881           JUNCTION      7.27    64.88     0  02:15      0.0205       0.219       0.116
  HS02004876           JUNCTION     11.80    58.23     0  02:15      0.0393       0.199       0.270
  HS02004870           JUNCTION     12.92    46.63     0  02:14      0.0387       0.159       0.067
  HS02004862           JUNCTION     10.74    34.47     0  02:15      0.0445       0.121       0.141
  HS02004856           JUNCTION      9.59    23.80     0  02:14      0.0291      0.0779       1.887
  HS02004852           JUNCTION      0.00    14.76     0  02:15           0      0.0488       0.109
  HS02004848           JUNCTION     21.95    21.95     0  02:18      0.0929      0.0929       0.047
  HS02004842           JUNCTION      0.00     7.98     0  02:27           0      0.0572      29.450
  HS02004837           JUNCTION     27.23    33.75     0  02:14       0.247       0.291       0.280
  HS02004830           JUNCTION      0.15    33.88     0  02:15     0.00423       0.281       0.441
  HS02004824           JUNCTION     24.95    58.52     0  02:18       0.122       0.401       0.134
  HS02004817           JUNCTION      0.60    59.11     0  02:18      0.0169       0.418       4.155
  HS02004807           JUNCTION     24.25    81.36     0  02:16      0.0712       0.472       0.903
  HS02004802           JUNCTION      0.00    81.95     0  02:17           0       0.468       0.874
  HS02004799           JUNCTION     18.77   212.19     0  02:12      0.0577       0.674       0.342
  HS02004792           JUNCTION     83.10   193.66     0  02:12       0.248       0.617       0.065
  HS02004788           JUNCTION     27.19   112.53     0  02:12       0.127        0.37       0.104
  HS02004785           JUNCTION      0.15    85.61     0  02:12     0.00423       0.245       0.199
  HS02004777           JUNCTION      0.03    85.92     0  02:11    0.000846       0.245       2.162
  HS02004770           JUNCTION     70.38    87.06     0  02:10         0.2       0.246       1.275
  HS02004480           JUNCTION      0.00   250.51     0  02:13           0       0.792       0.098
  HS02004479           JUNCTION      0.00    39.06     0  02:14           0        0.13       0.565
  HS02004478           JUNCTION      0.00   330.06     0  02:14           0        1.24       0.047
  YS02001745           JUNCTION    135.38   295.88     0  03:08        1.34        1.36       0.833
  YS02001748           JUNCTION      0.04   410.47     0  03:08     0.00127        1.35       1.673
  YS02001751           JUNCTION      0.01   320.38     0  02:51     0.00031        1.31       1.821
  YS02001754           JUNCTION      0.26   210.52     0  02:47     0.00733        1.29       1.939
  YS02001762           JUNCTION      0.00   194.16     0  02:52           0        1.46       1.459
  YS02001765           JUNCTION      0.00   191.01     0  02:51           0        1.46       1.675
  YS02001767           JUNCTION      0.54   189.53     0  02:52      0.0151        1.48       2.458
  YS02001770           JUNCTION    171.71   187.21     0  02:24        1.54        1.55       2.046
  YS02001774           JUNCTION      0.00    64.20     0  02:23           0      0.0669      59.773
  YS02001779           JUNCTION      0.01    60.06     0  02:23    0.000141      0.0322      91.460
  YS02001882           JUNCTION      0.00    12.26     0  02:56           0      0.0116      19.617
  YS02001884           JUNCTION      0.00    22.68     0  02:46           0      0.0389      15.994
  YS02001759           JUNCTION    167.10   363.18     0  02:52        1.43        2.85       0.810
  YS02001887           JUNCTION    217.39   232.80     0  02:45        1.68         1.7       0.455
  YS02001890           JUNCTION      0.00   227.88     0  02:46           0        1.66       0.507
  YS02001898           JUNCTION      0.00   232.42     0  02:53           0        1.65       0.161
  YS02001901           JUNCTION      0.00   232.12     0  02:57           0        1.65       0.368
  YS02001904           JUNCTION      0.00   232.49     0  02:56           0        1.65       0.341
  YS02001907           JUNCTION      0.00   450.61     0  02:59           0        3.57       0.651
  YS02001910           JUNCTION      0.00   211.56     0  02:51           0        1.94       0.559
  YS02001915           JUNCTION    120.46   187.39     0  02:58        1.14        1.94       0.266
  YS02001918           JUNCTION      0.00    64.90     0  03:02           0       0.807       0.180
  YS02001619           JUNCTION    117.38   117.38     0  02:55        1.13        1.13       1.060
  YS02001629           JUNCTION      0.00   219.73     0  02:47           0        1.05       2.717
  YS02001641           JUNCTION      0.00   300.94     0  03:01           0        2.28       0.928
  YS02001644           JUNCTION    128.79   429.41     0  03:00        1.29        4.34       0.599
  YS02001652           JUNCTION      0.00   225.37     0  03:03           0        1.18       2.041
  YS02001655           JUNCTION      0.15   389.76     0  02:50     0.00434        1.21       1.990
  YS02001920           JUNCTION      2.87    61.89     0  03:01      0.0809        0.81       0.299
  YS02001923           JUNCTION      0.04    59.02     0  03:01     0.00106       0.729       0.054
  YS02001926           JUNCTION      0.05    59.08     0  03:01     0.00147       0.731       0.372
  YS02001929           JUNCTION     59.05    59.05     0  03:01        0.73        0.73       0.053
  YS02001658           JUNCTION      0.00   557.22     0  03:01           0        1.29       1.563
  YS02001661           JUNCTION      0.00   467.96     0  03:42           0        1.74       0.579
  YS02001664           JUNCTION    154.92   391.61     0  03:43        1.24        1.68       0.358
  YS02001622           JUNCTION      0.00   161.58     0  02:47           0        1.11       2.882
  YS02001633           JUNCTION    131.02   300.68     0  03:00        1.33        2.34       1.382
  YS02001649           JUNCTION      0.00   603.23     0  03:02           0        3.96       0.945
  YS02001757           JUNCTION      0.00  1046.90     0  02:28           0        7.31       1.274
  YS02001895           JUNCTION      0.00   226.72     0  02:39           0        1.65       0.254
  YS02001625           JUNCTION      0.00   219.42     0  02:47           0        1.08       3.718
  YS02163301           JUNCTION      0.00   169.55     0  03:00           0        1.04       2.337
  YS02163601           JUNCTION      0.11   300.83     0  03:00      0.0031        2.29       1.320
  YS02164001           JUNCTION      0.00   300.97     0  03:00           0        2.28       0.877
  YS02001647           JUNCTION      0.00   429.48     0  03:00           0        3.04       0.929
  YSB1154              JUNCTION     20.99    20.99     0  02:12        0.07      0.0712       2.068
  YSB6556              JUNCTION      0.00    21.01     0  02:14           0      0.0721       1.761
  YSB1174              JUNCTION     20.11    20.11     0  02:07      0.0508      0.0517       2.543
  YSB1171              JUNCTION      0.00    38.89     0  02:13           0       0.129       5.138
  YS02006553           JUNCTION      0.00   438.92     0  02:59           0        3.56       0.413
  YS02006561           JUNCTION      0.00   663.48     0  02:50           0        5.04       0.006
  YS02006556           JUNCTION      0.00   432.36     0  02:59           0        3.57       0.299
  YS02006558           JUNCTION    184.83   635.28     0  02:52        1.53        5.07       0.100
  YS02001783           JUNCTION      0.00   618.89     0  02:53           0        5.04       0.035
  YS02001784           JUNCTION      1.06   619.24     0  02:53      0.0299        5.07       0.058
  YS02001786           JUNCTION      0.06   623.58     0  02:53     0.00159        5.07       0.049
  YS02001788           JUNCTION      0.07   623.31     0  02:51       0.002        5.07       0.030
  YS02001790           JUNCTION      0.15   613.37     0  02:39     0.00437        5.07       0.038
  YS02001791           JUNCTION      0.00   613.48     0  02:39           0        5.07       0.009
  YS02001793           JUNCTION      0.00   613.89     0  02:39           0        5.08      -0.036
  WS02004139           JUNCTION      0.32   379.58     0  01:40     0.00905        5.17       0.481
  WSC                  OUTFALL       0.00   743.61     0  03:43           0        11.7       0.000
  3                    OUTFALL       0.00   597.65     0  00:00           0        2.42       0.000
  4                    OUTFALL       0.00    91.50     0  03:31           0       0.084       0.000
  5                    OUTFALL       0.00     0.00     0  00:00           0           0       0.000 ltr
  JK-storage           STORAGE       0.00   845.21     0  02:33           0        5.23      -3.645
  CC-storage           STORAGE       0.00  1046.57     0  02:28           0        6.63       0.978
  XR-storage           STORAGE     418.12   418.12     0  02:54         7.9         8.5      -0.003
  
  
  **********************
  Node Surcharge Summary
  **********************
  
  Surcharging occurs when water rises above the top of the highest conduit.
  ---------------------------------------------------------------------
                                               Max. Height   Min. Depth
                                   Hours       Above Crown    Below Rim
  Node                 Type      Surcharged         Meters       Meters
  ---------------------------------------------------------------------
  WS02006109           JUNCTION        1.18          0.150        1.670
  WS02006110           JUNCTION        0.08          0.011        1.839
  WS02006112           JUNCTION        0.18          0.047        1.633
  WS02006232           JUNCTION        0.49          0.055        1.425
  WS02006235           JUNCTION        0.24          0.040        1.250
  WS02006238           JUNCTION        0.32          0.059        1.371
  WS02006242           JUNCTION        0.22          0.051        0.769
  WS02006239           JUNCTION        0.07          0.014        1.276
  WS02006252           JUNCTION        0.89          0.193        0.907
  WS02006256           JUNCTION        0.01          1.050        0.000
  WS02006228           JUNCTION        1.10          0.178        2.022
  YS02001748           JUNCTION        4.49          0.221        0.969
  YS02001751           JUNCTION        4.89          0.756        0.444
  YS02001754           JUNCTION        5.26          0.797        0.353
  YS02001762           JUNCTION        5.49          1.016        0.134
  YS02001765           JUNCTION        5.47          0.962        0.138
  YS02001767           JUNCTION        5.44          0.916        0.114
  YS02001770           JUNCTION        5.43          0.869        0.051
  YS02001774           JUNCTION        5.49          0.963        0.087
  YS02001779           JUNCTION        5.25          0.680        0.000
  YS02001759           JUNCTION        5.50          1.051        0.159
  YS02001907           JUNCTION        0.30          0.044        0.906
  YS02001619           JUNCTION        4.81          0.610        0.000
  YS02001629           JUNCTION        4.84          0.470        0.000
  YS02001641           JUNCTION        5.47          0.935        0.165
  YS02001644           JUNCTION        5.47          0.920        0.000
  YS02001652           JUNCTION        5.29          1.116        0.014
  YS02001655           JUNCTION        4.91          1.200        0.000
  YS02001658           JUNCTION        4.51          1.300        0.000
  YS02001661           JUNCTION        0.06          0.820        0.570
  YS02001622           JUNCTION        4.90          0.620        0.000
  YS02001633           JUNCTION        5.45          0.924        0.136
  YS02001649           JUNCTION        5.49          1.050        0.000
  YS02001757           JUNCTION        5.54          1.157        0.053
  YS02001625           JUNCTION        5.35          0.780        0.000
  YS02163301           JUNCTION        5.44          0.886        0.144
  YS02163601           JUNCTION        5.48          0.991        0.089
  YS02164001           JUNCTION        5.46          0.925        0.175
  YS02001647           JUNCTION        5.31          0.798        0.102
  YS02006553           JUNCTION        0.47          0.063        1.127
  YS02001783           JUNCTION        0.17          0.419        1.181
  YS02001784           JUNCTION        0.47          0.532        0.958
  YS02001786           JUNCTION        0.20          0.612        0.818
  YS02001788           JUNCTION        0.08          0.470        1.010
  YS02001790           JUNCTION        1.55          0.886        0.271
  YS02001791           JUNCTION        1.80          0.806        1.114
  YS02001793           JUNCTION        2.44          0.851        1.749
  
  
  *********************
  Node Flooding Summary
  *********************
  
  Flooding refers to all water that overflows a node, whether it ponds or not.
  --------------------------------------------------------------------------
                                                             Total   Maximum
                                 Maximum   Time of Max       Flood    Ponded
                        Hours       Rate    Occurrence      Volume     Depth
  Node                 Flooded       LPS   days hr:min    10^6 ltr    Meters
  --------------------------------------------------------------------------
  WS02006256              0.01    406.11      0  00:00       0.001     0.000
  YS02001779              1.01     14.36      0  03:48       0.009     0.000
  YS02001619              0.01     17.21      0  03:10       0.000     0.000
  YS02001629              0.01     29.22      0  03:11       0.000     0.000
  YS02001644              3.45    419.39      0  05:13       2.053     0.000
  YS02001655              0.01    231.10      0  02:49       0.000     0.000
  YS02001658              0.01    132.79      0  03:03       0.000     0.000
  YS02001622              0.01     31.65      0  03:08       0.000     0.000
  YS02001649              0.01     19.77      0  03:45       0.000     0.000
  YS02001625              0.04     15.73      0  03:15       0.001     0.000
  JK-storage              1.21    399.29      0  03:40       0.972     0.000
  XR-storage              4.34    319.25      0  02:40       2.417     0.000
  
  
  **********************
  Storage Volume Summary
  **********************
  
  --------------------------------------------------------------------------------------------------
                         Average     Avg  Evap Exfil       Maximum     Max    Time of Max    Maximum
                          Volume    Pcnt  Pcnt  Pcnt        Volume    Pcnt     Occurrence    Outflow
  Storage Unit           1000 m3    Full  Loss  Loss       1000 m3    Full    days hr:min        LPS
  --------------------------------------------------------------------------------------------------
  JK-storage               0.166      57     0     0         0.291     100       0  02:37     600.00
  CC-storage               2.971      19     0     0         3.833      24       0  05:08     399.95
  XR-storage               0.899      97     0     0         0.926     100       0  02:25     379.98
  
  
  ***********************
  Outfall Loading Summary
  ***********************
  
  -----------------------------------------------------------
                         Flow       Avg       Max       Total
                         Freq      Flow      Flow      Volume
  Outfall Node           Pcnt       LPS       LPS    10^6 ltr
  -----------------------------------------------------------
  WSC                   99.99    480.34    743.61      11.687
  3                     70.88    186.81    597.65       2.417
  4                     15.20     31.29     91.50       0.084
  5                      0.00      0.00      0.00       0.000
  -----------------------------------------------------------
  System                46.52    698.45   1166.23      14.188
  
  
  ********************
  Link Flow Summary
  ********************
  
  -----------------------------------------------------------------------------
                                 Maximum  Time of Max   Maximum    Max/    Max/
                                  |Flow|   Occurrence   |Veloc|    Full    Full
  Link                 Type          LPS  days hr:min     m/sec    Flow   Depth
  -----------------------------------------------------------------------------
  WS02003066WSF200     CONDUIT    523.38     0  02:27      2.75    0.09    0.22
  WS02006287WS02006284 CONDUIT    330.13     0  02:14      1.90    0.15    0.27
  WS02006284WS02006280 CONDUIT    330.26     0  02:15      2.14    0.14    0.25
  WS02006280WS02006229 CONDUIT    330.26     0  02:15      3.44    0.07    0.18
  WS02006229WS02006228 CONDUIT    534.33     0  02:19      1.06    1.77    1.00
  WS02006256WS02006235 CONDUIT    177.52     0  00:01      2.73    1.88    1.00
  WS02006253WS02006251 CONDUIT     72.91     0  02:16      0.58    0.22    0.89
  WS02006252WS02006251 CONDUIT    400.31     0  03:50      3.19    1.47    1.00
  WS02006251WS02006249 CONDUIT    398.58     0  03:30      1.16    1.15    0.86
  WS02006249WS02006248 CONDUIT    349.85     0  04:50      1.15    1.92    0.83
  WS02006248WS02006247 CONDUIT    344.64     0  04:50      1.11    0.75    0.87
  WS02006247WS02006245 CONDUIT    342.02     0  03:50      1.07    2.71    0.91
  WS02006245WS02006243 CONDUIT    340.27     0  03:51      1.08    1.01    0.93
  WS02006243WS02006242 CONDUIT    337.74     0  03:51      0.99    0.72    0.98
  WS02006242WS02006240 CONDUIT    335.35     0  03:51      0.95    1.33    1.00
  WS02006240WS02006239 CONDUIT    333.16     0  03:52      1.00    1.05    1.00
  WS02006239WS02006238 CONDUIT    332.12     0  03:52      0.92    1.06    1.00
  WS02006238WS02006235 CONDUIT    331.59     0  03:52      1.32    0.74    1.00
  WS02006235WS02006234 CONDUIT    390.46     0  04:10      1.02    4.12    0.99
  WS02006234WS02006232 CONDUIT    388.96     0  04:11      1.17    0.79    1.00
  WS02006232WS02006231 CONDUIT    388.89     0  04:11      1.06    0.81    0.94
  WS02006231WS02006230 CONDUIT    387.64     0  04:12      1.30    5.88    0.87
  WS02006230WS02006229 CONDUIT    397.61     0  04:13      1.03    8.85    1.00
  WS02006228WS02006109 CONDUIT    534.35     0  02:19      1.06    2.33    1.00
  WS02006116WS02004401 CONDUIT    535.16     0  02:21      0.77    0.74    0.84
  WS02006115WS02006116 CONDUIT    539.68     0  02:21      0.87    0.69    0.76
  WS02006113WS02006111 CONDUIT    555.31     0  02:20      2.46    0.67    0.46
  WS02006112WS02006115 CONDUIT    549.66     0  02:21      0.76    0.32    0.87
  WS02006111WS02006112 CONDUIT    539.42     0  02:20      1.50    0.26    0.67
  WS02006110WS02006113 CONDUIT    536.12     0  02:19      1.27    0.49    0.78
  WS02006109WS02006110 CONDUIT    535.62     0  02:19      1.07    1.03    1.00
  WS02004411WS02004412 CONDUIT    524.14     0  02:26      0.91    0.74    0.69
  WS02004401WS02004402 CONDUIT    533.60     0  02:22      0.74    0.64    0.86
  WS02004413WS02003067 CONDUIT    523.19     0  02:27      1.09    0.22    0.59
  WS02004412WS02004413 CONDUIT    523.32     0  02:26      0.81    0.35    0.77
  WS02004410WS02004411 CONDUIT    525.63     0  02:25      0.94    0.72    0.68
  WS02004409WS02004410 CONDUIT    528.20     0  02:25      0.98    0.68    0.66
  WS02004407WS02004409 CONDUIT    531.78     0  02:23      1.49    0.19    0.47
  WS02004406WS02004407 CONDUIT    531.95     0  02:23      1.03    0.24    0.62
  WS02004405WS02004406 CONDUIT    532.28     0  02:23      0.69    1.05    0.95
  WS02004404WS02004405 CONDUIT    531.96     0  02:23      0.69    5.21    0.96
  WS02004403WS02004404 CONDUIT    532.07     0  02:22      0.70    0.38    0.92
  WS02004402WS02004403 CONDUIT    533.05     0  02:22      0.73    0.77    0.88
  WS02004139WS02001211 CONDUIT    374.21     0  01:40      0.69    0.47    0.56
  WS02004138WS02004139 CONDUIT    379.26     0  01:40      2.94    0.08    0.42
  WS02003067WS02003066 CONDUIT    523.33     0  02:27      1.19    0.17    0.41
  WS02001213WS02003059 CONDUIT    375.17     0  01:42      0.67    0.62    0.70
  WS02001212WS02001213 CONDUIT    376.72     0  01:41      1.31    0.58    0.40
  WS02001211WS02001212 CONDUIT    377.62     0  01:41      0.77    0.29    0.60
  WS02003072WS02003073 CONDUIT    741.84     0  03:42      1.59    1.60    0.43
  WS02003069WS02003072 CONDUIT    741.87     0  03:42      1.50    0.36    0.45
  WS02003060WS02003069 CONDUIT    741.60     0  03:41      1.76    0.29    0.40
  WS02003059WS02003060 CONDUIT    372.84     0  01:42      0.93    0.24    0.59
  HS02004901HS02004770 CONDUIT     16.87     0  02:11      0.06    0.06    0.38
  HS02004876HS02004881 CONDUIT     58.22     0  02:15      0.83    0.62    0.10
  HS02004870HS02004876 CONDUIT     46.60     0  02:15      0.57    0.03    0.12
  HS02004842HS02004848 CONDUIT      7.98     0  02:27      0.04    0.00    0.29
  HS02004837HS02004842 CONDUIT      8.26     0  02:28      0.41    0.00    0.31
  HS02004830HS02004837 CONDUIT     33.73     0  02:15      0.51    0.03    0.09
  HS02004824HS02004830 CONDUIT     33.87     0  02:16      0.55    0.04    0.09
  HS02004817HS02004824 CONDUIT     58.51     0  02:18      0.19    0.03    0.44
  HS02004770HS02004777 CONDUIT     85.89     0  02:11      0.31    0.16    0.40
  HS02004799HS02004480 CONDUIT    211.89     0  02:12      0.75    0.27    0.40
  HS02004792HS02004799 CONDUIT    193.55     0  02:12      0.86    0.12    0.32
  HS02004788HS02004792 CONDUIT    112.45     0  02:13      0.99    0.07    0.16
  HS02004785HS02004788 CONDUIT     85.52     0  02:13      0.65    0.64    0.19
  HS02004777HS02004785 CONDUIT     85.46     0  02:12      0.37    0.11    0.33
  HS02004480HS02004478 CONDUIT    250.51     0  02:13      1.17    1.06    0.31
  HS02004479HS02004480 CONDUIT     39.34     0  02:15      0.15    0.04    0.39
  HS02004862HS02004870 CONDUIT     34.44     0  02:16      0.58    0.04    0.09
  HS02004848HS02004852 CONDUIT     14.76     0  02:15      0.39    0.02    0.05
  HS02004856HS02004862 CONDUIT     23.76     0  02:15      0.43    0.02    0.08
  HS02004852HS02004856 CONDUIT     14.72     0  02:16      0.19    0.02    0.11
  HS02004802HS02004478 CONDUIT     82.62     0  02:18      0.38    0.07    0.32
  HS02004478WS02006287 CONDUIT    330.08     0  02:14      1.60    0.09    0.23
  HS02004817HS02004807 CONDUIT     60.08     0  02:20      0.15    0.04    0.58
  HS02004807HS02004802 CONDUIT     81.95     0  02:17      0.32    0.16    0.37
  YS02001759YS02001757 CONDUIT    365.15     0  02:52      0.46    0.26    1.00
  YS02001762YS02001759 CONDUIT    197.19     0  02:52      0.25    0.23    1.00
  YS02001765YS02001762 CONDUIT    194.16     0  02:52      0.25    0.18    1.00
  YS02001770YS02001767 CONDUIT    189.00     0  02:52      0.31    0.75    1.00
  YS02001774YS02001770 CONDUIT     64.20     0  02:23      0.15    0.04    1.00
  YS02001779YS02001774 CONDUIT     60.05     0  02:23      0.08    0.03    1.00
  YS02001649YS02001757 CONDUIT    603.91     0  03:02      0.77    0.37    1.00
  YS02001767YS02001765 CONDUIT    191.01     0  02:51      0.26    0.24    1.00
  YS02006561YS02001783 CONDUIT    618.89     0  02:53      2.07    0.32    0.72
  YS02001783YS02001784 CONDUIT    618.18     0  02:53      1.50    0.85    1.00
  YS02001784YS02001785 CONDUIT    623.52     0  02:53      1.61    1.45    1.00
  YS02001788YS02001790 CONDUIT    613.21     0  02:39      2.14    0.45    1.00
  YS02001790YS02001791 CONDUIT    613.48     0  02:39      2.54    0.67    1.00
  YS02001791YS02001793 CONDUIT    613.89     0  02:39      5.11    0.26    1.00
  YS02001910YS02001907 CONDUIT    209.04     0  02:52      0.49    0.12    0.91
  YS02001786YS02001788 CONDUIT    623.24     0  02:51      2.07    1.20    1.00
  YS02001915YS02001910 CONDUIT    211.56     0  02:51      0.45    0.11    0.70
  YS02001918YS02001915 CONDUIT     68.70     0  03:05      0.44    0.04    0.42
  YS02001923YS02001920 CONDUIT     59.02     0  03:01      0.56    0.03    0.21
  YS02001926YS02001923 CONDUIT     58.99     0  03:01      0.63    0.08    0.18
  YS02001929YS02001926 CONDUIT     59.02     0  03:01      0.68    0.03    0.17
  YS02001920YS02001918 CONDUIT     64.90     0  03:02      0.56    0.06    0.28
  YS02001629YS02163301 CONDUIT    169.55     0  03:00      0.22    0.21    1.00
  YS02001619YS02001622 CONDUIT    161.58     0  02:47      0.74    0.24    1.00
  YS02001622YS02001625 CONDUIT    219.42     0  02:47      0.31    0.12    1.00
  YS02001625YS02001629 CONDUIT    219.73     0  02:47      0.30    0.10    1.00
  YS02163301YS02001633 CONDUIT    169.67     0  03:00      0.22    0.16    1.00
  YS02163601YS02164001 CONDUIT    300.97     0  03:00      0.38    0.27    1.00
  YS02164001YS02001641 CONDUIT    300.94     0  03:01      0.38    0.41    1.00
  YS02001641YS02001644 CONDUIT    300.66     0  03:00      0.38    0.97    1.00
  YS02001647YS02001649 CONDUIT    429.29     0  03:00      0.55    0.23    1.00
  YS02006553YS02006556 CONDUIT    432.36     0  02:59      0.56    0.37    0.99
  YS02006556YS02006558 CONDUIT    452.96     0  02:52      0.58    0.36    1.00
  YSB6556YSB1171       CONDUIT     21.39     0  02:15      0.08    0.02    0.66
  YS02001907YS02006553 CONDUIT    438.92     0  02:59      0.49    0.52    1.00
  YS02006558YS02006561 CONDUIT    663.48     0  02:50      3.15    1.47    0.72
  YS02001633YS02163601 CONDUIT    300.72     0  03:00      0.38    0.32    1.00
  YS02001644YS02001647 CONDUIT    429.48     0  03:00      0.55    0.25    1.00
  YS02001745YS02001748 CONDUIT    410.43     0  03:08      1.58    0.16    0.93
  YS02001748YS02001751 CONDUIT    320.37     0  02:51      1.22    0.16    1.00
  YS02001751YS02001754 CONDUIT    210.26     0  02:47      1.04    0.10    1.00
  YS02001754YS02001757 CONDUIT    210.07     0  02:47      0.33    0.08    1.00
  YS02001882YS02001884 CONDUIT     14.42     0  02:45      0.06    0.02    0.64
  YS02001884YS02001887 CONDUIT     22.68     0  02:46      0.07    0.03    0.73
  YS02001890YS02001895 CONDUIT    226.72     0  02:39      0.39    0.11    0.71
  YS02001895YS02001898 CONDUIT    232.42     0  02:53      0.52    0.40    0.56
  YS02001898YS02001901 CONDUIT    232.12     0  02:57      0.44    0.15    0.65
  YS02001901YS02001904 CONDUIT    232.49     0  02:56      0.41    0.36    0.70
  YS02001904YS02001907 CONDUIT    248.79     0  02:52      0.35    0.09    0.85
  YS02001887YS02001890 CONDUIT    227.88     0  02:46      0.34    0.39    0.79
  YS02001652YS02001649 CONDUIT    225.53     0  03:03      0.34    0.11    1.00
  YS02001655YS02001652 CONDUIT    225.37     0  03:03      1.10    0.11    1.00
  YS02001658YS02001655 CONDUIT    389.61     0  02:50      1.41    0.17    1.00
  YS02001661YS02001658 CONDUIT    557.22     0  03:01      1.66    0.22    1.00
  YS02001664YS02001661 CONDUIT    467.96     0  03:42      1.45    0.15    0.70
  YSB1154YSB6556       CONDUIT     21.01     0  02:14      0.19    0.04    0.55
  YSB1174YSB1171       CONDUIT     18.73     0  02:10      0.07    0.03    0.66
  YSB1171HS02004479    CONDUIT     39.06     0  02:14      0.54    0.03    0.52
  HS02004881HS02006253 CONDUIT     64.87     0  02:15      2.02    0.01    0.22
  YS02001793JiankangQianchi CONDUIT    845.21     0  02:33     13.02    0.07    1.00
  YS02001757CaochengTiaoxuchi CONDUIT   1046.57     0  02:28      2.21    0.46    1.00
  WSF200WS02003060     CONDUIT    523.76     0  02:27      1.81    0.12    0.30
  1                    CONDUIT    743.61     0  03:43      3.07    0.26    0.35
  2                    CONDUIT     91.50     0  03:31      4.73    0.22    0.32
  3                    CONDUIT    597.65     0  00:00     10.05    0.95    0.86
  4                    CONDUIT      0.00     0  00:00      0.00    0.00    0.00
  CC-Pump-1            PUMP       200.00     0  03:00              1.00
  CC-Pump-2            PUMP       200.00     0  04:10              1.00
  JK-Pump-1            PUMP       300.00     0  00:00              1.00
  JK-Pump-2            PUMP       300.00     0  00:00              1.00
  XR-Pump-1            PUMP        95.00     0  00:00              1.00
  XR-Pump-2            PUMP        95.00     0  00:00              1.00
  XR-Pump-3            PUMP        95.00     0  01:30              1.00
  XR-Pump-4            PUMP        95.00     0  00:20              1.00
  
  
  ***************************
  Flow Classification Summary
  ***************************
  
  -------------------------------------------------------------------------------------
                      Adjusted    ---------- Fraction of Time in Flow Class ---------- 
                       /Actual         Up    Down  Sub   Sup   Up    Down  Norm  Inlet 
  Conduit               Length    Dry  Dry   Dry   Crit  Crit  Crit  Crit  Ltd   Ctrl  
  -------------------------------------------------------------------------------------
  WS02003066WSF200        1.00   0.05  0.03  0.00  0.00  0.92  0.00  0.00  0.68  0.00
  WS02006287WS02006284    1.00   0.04  0.02  0.00  0.64  0.31  0.00  0.00  0.75  0.00
  WS02006284WS02006280    1.00   0.04  0.00  0.00  0.00  0.00  0.00  0.96  0.00  0.00
  WS02006280WS02006229    1.00   0.04  0.00  0.00  0.00  0.00  0.00  0.96  0.00  0.00
  WS02006229WS02006228    1.00   0.00  0.00  0.00  0.98  0.00  0.00  0.02  0.00  0.00
  WS02006256WS02006235    1.00   0.00  0.00  0.00  0.99  0.01  0.00  0.00  0.00  0.00
  WS02006253WS02006251    1.00   0.03  0.01  0.00  0.96  0.00  0.00  0.00  0.00  0.00
  WS02006252WS02006251    1.00   0.08  0.00  0.00  0.00  0.00  0.92  0.00  0.00  0.00
  WS02006251WS02006249    1.00   0.00  0.00  0.00  1.00  0.00  0.00  0.00  0.36  0.00
  WS02006249WS02006248    1.00   0.00  0.02  0.00  0.78  0.00  0.20  0.00  0.00  0.00
  WS02006248WS02006247    1.00   0.02  0.00  0.00  0.97  0.00  0.00  0.01  0.29  0.00
  WS02006247WS02006245    1.00   0.02  0.00  0.00  0.95  0.00  0.00  0.03  0.00  0.00
  WS02006245WS02006243    1.00   0.02  0.00  0.00  0.92  0.00  0.00  0.06  0.04  0.00
  WS02006243WS02006242    1.00   0.01  0.01  0.00  0.98  0.00  0.00  0.00  0.28  0.00
  WS02006242WS02006240    1.00   0.01  0.00  0.00  0.99  0.00  0.00  0.00  0.00  0.00
  WS02006240WS02006239    1.00   0.00  0.00  0.00  0.95  0.00  0.00  0.05  0.02  0.00
  WS02006239WS02006238    1.00   0.00  0.00  0.00  1.00  0.00  0.00  0.00  0.01  0.00
  WS02006238WS02006235    1.00   0.00  0.00  0.00  1.00  0.00  0.00  0.00  0.00  0.00
  WS02006235WS02006234    1.00   0.00  0.00  0.00  0.94  0.00  0.06  0.00  0.00  0.00
  WS02006234WS02006232    1.00   0.00  0.00  0.00  1.00  0.00  0.00  0.00  0.12  0.00
  WS02006232WS02006231    1.00   0.00  0.00  0.00  0.99  0.00  0.01  0.00  0.00  0.00
  WS02006231WS02006230    1.00   0.00  0.00  0.00  0.45  0.00  0.55  0.00  0.00  0.00
  WS02006230WS02006229    1.00   0.00  0.00  0.00  0.98  0.00  0.00  0.02  0.01  0.00
  WS02006228WS02006109    1.00   0.00  0.00  0.00  0.99  0.00  0.00  0.00  0.00  0.00
  WS02006116WS02004401    1.00   0.02  0.00  0.00  0.98  0.00  0.00  0.00  0.00  0.00
  WS02006115WS02006116    1.00   0.02  0.00  0.00  0.96  0.00  0.00  0.01  0.01  0.00
  WS02006113WS02006111    1.00   0.02  0.00  0.00  0.00  0.98  0.00  0.00  0.15  0.00
  WS02006112WS02006115    1.00   0.02  0.00  0.00  0.98  0.00  0.00  0.00  0.00  0.00
  WS02006111WS02006112    1.00   0.02  0.00  0.00  0.98  0.00  0.00  0.00  0.98  0.00
  WS02006110WS02006113    1.00   0.02  0.00  0.00  0.98  0.00  0.00  0.00  0.00  0.00
  WS02006109WS02006110    1.00   0.00  0.02  0.00  0.98  0.00  0.00  0.00  0.00  0.00
  WS02004411WS02004412    1.00   0.06  0.00  0.00  0.94  0.00  0.00  0.00  0.00  0.00
  WS02004401WS02004402    1.00   0.02  0.00  0.00  0.98  0.00  0.00  0.00  0.00  0.00
  WS02004413WS02003067    1.00   0.06  0.01  0.00  0.00  0.00  0.93  0.00  0.00  0.00
  WS02004412WS02004413    1.00   0.06  0.00  0.00  0.94  0.00  0.00  0.00  0.02  0.00
  WS02004410WS02004411    1.00   0.06  0.00  0.00  0.94  0.00  0.00  0.00  0.00  0.00
  WS02004409WS02004410    1.00   0.06  0.00  0.00  0.94  0.00  0.00  0.00  0.00  0.00
  WS02004407WS02004409    1.00   0.05  0.00  0.00  0.94  0.00  0.00  0.00  0.79  0.00
  WS02004406WS02004407    1.00   0.00  0.05  0.00  0.95  0.00  0.00  0.00  0.00  0.00
  WS02004405WS02004406    1.00   0.00  0.00  0.00  1.00  0.00  0.00  0.00  0.02  0.00
  WS02004404WS02004405    1.00   0.00  0.00  0.00  1.00  0.00  0.00  0.00  0.00  0.00
  WS02004403WS02004404    1.00   0.00  0.02  0.00  0.98  0.00  0.00  0.00  0.02  0.00
  WS02004402WS02004403    1.00   0.02  0.00  0.00  0.98  0.00  0.00  0.00  0.00  0.00
  WS02004139WS02001211    1.00   0.00  0.00  0.00  0.99  0.00  0.01  0.00  0.00  0.00
  WS02004138WS02004139    1.00   0.00  0.00  0.00  0.98  0.01  0.00  0.00  1.00  0.00
  WS02003067WS02003066    1.00   0.07  0.01  0.00  0.92  0.00  0.00  0.00  0.00  0.00
  WS02001213WS02003059    1.00   0.00  0.01  0.00  0.99  0.00  0.00  0.00  0.00  0.00
  WS02001212WS02001213    1.00   0.01  0.00  0.00  0.70  0.00  0.29  0.00  0.00  0.00
  WS02001211WS02001212    1.00   0.00  0.01  0.00  0.99  0.00  0.00  0.00  0.00  0.00
  WS02003072WS02003073    1.00   0.00  0.00  0.00  0.00  0.00  0.00  1.00  0.00  0.00
  WS02003069WS02003072    1.00   0.00  0.00  0.00  0.99  0.01  0.00  0.00  0.37  0.00
  WS02003060WS02003069    1.00   0.00  0.00  0.00  0.98  0.02  0.00  0.00  0.25  0.00
  WS02003059WS02003060    1.00   0.00  0.00  0.00  0.99  0.01  0.00  0.00  0.01  0.00
  HS02004901HS02004770    1.00   0.04  0.00  0.00  0.96  0.00  0.00  0.00  0.02  0.00
  HS02004876HS02004881    1.00   0.02  0.00  0.00  0.96  0.02  0.00  0.00  0.00  0.00
  HS02004870HS02004876    1.00   0.01  0.00  0.00  0.99  0.00  0.00  0.00  0.95  0.00
  HS02004842HS02004848    1.00   0.00  0.04  0.00  0.96  0.00  0.00  0.00  0.66  0.00
  HS02004837HS02004842    1.00   0.00  0.00  0.00  0.99  0.01  0.00  0.00  0.11  0.00
  HS02004830HS02004837    1.00   0.00  0.00  0.00  1.00  0.00  0.00  0.00  0.99  0.00
  HS02004824HS02004830    1.00   0.00  0.00  0.00  1.00  0.00  0.00  0.00  0.00  0.00
  HS02004817HS02004824    1.00   0.00  0.00  0.00  1.00  0.00  0.00  0.00  1.00  0.00
  HS02004770HS02004777    1.00   0.00  0.04  0.00  0.96  0.00  0.00  0.00  0.06  0.00
  HS02004799HS02004480    1.00   0.00  0.02  0.00  0.94  0.00  0.03  0.00  0.00  0.00
  HS02004792HS02004799    1.00   0.00  0.00  0.00  0.98  0.02  0.00  0.00  0.98  0.00
  HS02004788HS02004792    1.00   0.00  0.00  0.00  0.98  0.02  0.00  0.00  0.98  0.00
  HS02004785HS02004788    1.00   0.00  0.00  0.00  1.00  0.00  0.00  0.00  0.00  0.00
  HS02004777HS02004785    1.00   0.00  0.00  0.00  1.00  0.00  0.00  0.00  0.19  0.00
  HS02004480HS02004478    1.00   0.05  0.00  0.00  0.71  0.00  0.00  0.24  0.00  0.00
  HS02004479HS02004480    1.00   0.02  0.00  0.00  0.98  0.00  0.00  0.00  0.15  0.00
  HS02004862HS02004870    1.00   0.00  0.00  0.00  1.00  0.00  0.00  0.00  0.06  0.00
  HS02004848HS02004852    1.00   0.04  0.00  0.00  0.96  0.00  0.00  0.00  0.71  0.00
  HS02004856HS02004862    1.00   0.00  0.07  0.00  0.93  0.00  0.00  0.00  0.75  0.00
  HS02004852HS02004856    1.00   0.04  0.01  0.00  0.95  0.00  0.00  0.00  0.83  0.00
  HS02004802HS02004478    1.00   0.04  0.00  0.00  0.95  0.00  0.00  0.00  0.01  0.00
  HS02004478WS02006287    1.00   0.05  0.00  0.00  0.82  0.12  0.00  0.00  0.72  0.00
  HS02004817HS02004807    1.00   0.00  0.04  0.00  0.96  0.00  0.00  0.00  0.00  0.00
  HS02004807HS02004802    1.00   0.04  0.00  0.00  0.95  0.00  0.00  0.00  0.01  0.00
  YS02001759YS02001757    1.00   0.00  0.00  0.00  1.00  0.00  0.00  0.00  0.17  0.00
  YS02001762YS02001759    1.00   0.00  0.00  0.00  1.00  0.00  0.00  0.00  0.04  0.00
  YS02001765YS02001762    1.00   0.00  0.00  0.00  1.00  0.00  0.00  0.00  0.21  0.00
  YS02001770YS02001767    1.00   0.00  0.00  0.00  1.00  0.00  0.00  0.00  0.00  0.00
  YS02001774YS02001770    1.00   0.00  0.05  0.00  0.95  0.00  0.00  0.00  0.06  0.00
  YS02001779YS02001774    1.00   0.00  0.00  0.00  1.00  0.00  0.00  0.00  0.25  0.00
  YS02001649YS02001757    1.00   0.00  0.00  0.00  1.00  0.00  0.00  0.00  0.19  0.00
  YS02001767YS02001765    1.00   0.00  0.00  0.00  1.00  0.00  0.00  0.00  0.01  0.00
  YS02006561YS02001783    1.00   0.07  0.00  0.00  0.29  0.64  0.00  0.00  0.65  0.00
  YS02001783YS02001784    1.00   0.00  0.07  0.00  0.93  0.00  0.00  0.00  0.00  0.00
  YS02001784YS02001785    1.00   0.00  0.00  0.00  1.00  0.00  0.00  0.00  0.24  0.00
  YS02001788YS02001790    1.00   0.00  0.00  0.00  0.48  0.52  0.00  0.00  0.65  0.00
  YS02001790YS02001791    1.00   0.00  0.00  0.00  0.47  0.53  0.00  0.00  0.37  0.00
  YS02001791YS02001793    1.00   0.00  0.00  0.00  0.50  0.50  0.00  0.00  0.03  0.00
  YS02001910YS02001907    1.00   0.00  0.00  0.00  0.98  0.00  0.00  0.02  0.13  0.00
  YS02001786YS02001788    1.00   0.00  0.00  0.00  0.41  0.59  0.00  0.00  0.00  0.00
  YS02001915YS02001910    1.00   0.00  0.00  0.00  1.00  0.00  0.00  0.00  0.23  0.00
  YS02001918YS02001915    1.00   0.00  0.01  0.00  0.99  0.00  0.00  0.00  0.65  0.00
  YS02001923YS02001920    1.00   0.00  0.00  0.00  1.00  0.00  0.00  0.00  1.00  0.00
  YS02001926YS02001923    1.00   0.00  0.03  0.00  0.00  0.00  0.97  0.00  0.00  0.00
  YS02001929YS02001926    1.00   0.00  0.04  0.00  0.96  0.00  0.00  0.00  0.87  0.00
  YS02001920YS02001918    1.00   0.00  0.01  0.00  0.99  0.00  0.00  0.00  0.00  0.00
  YS02001629YS02163301    1.00   0.06  0.00  0.00  0.94  0.00  0.00  0.00  0.00  0.00
  YS02001619YS02001622    1.00   0.04  0.00  0.00  0.96  0.00  0.00  0.00  0.00  0.00
  YS02001622YS02001625    1.00   0.04  0.00  0.00  0.96  0.00  0.00  0.00  0.12  0.00
  YS02001625YS02001629    1.00   0.04  0.03  0.00  0.92  0.00  0.01  0.00  0.00  0.00
  YS02163301YS02001633    1.00   0.00  0.06  0.00  0.94  0.00  0.00  0.00  0.00  0.00
  YS02163601YS02164001    1.00   0.00  0.03  0.00  0.97  0.00  0.00  0.00  0.00  0.00
  YS02164001YS02001641    1.00   0.01  0.02  0.00  0.97  0.00  0.00  0.00  0.07  0.00
  YS02001641YS02001644    1.00   0.00  0.01  0.00  0.99  0.00  0.00  0.00  0.00  0.00
  YS02001647YS02001649    1.00   0.00  0.06  0.00  0.93  0.00  0.00  0.00  0.01  0.00
  YS02006553YS02006556    1.00   0.02  0.00  0.00  0.98  0.00  0.00  0.00  0.03  0.00
  YS02006556YS02006558    1.00   0.00  0.01  0.00  0.99  0.00  0.00  0.00  0.00  0.00
  YSB6556YSB1171          1.00   0.02  0.02  0.00  0.96  0.00  0.00  0.00  0.00  0.00
  YS02001907YS02006553    1.00   0.00  0.02  0.00  0.98  0.00  0.00  0.00  0.00  0.00
  YS02006558YS02006561    1.00   0.07  0.00  0.00  0.00  0.93  0.00  0.00  0.57  0.00
  YS02001633YS02163601    1.00   0.00  0.01  0.00  0.99  0.00  0.00  0.00  0.19  0.00
  YS02001644YS02001647    1.00   0.00  0.07  0.00  0.93  0.00  0.00  0.00  0.00  0.00
  YS02001745YS02001748    1.00   0.00  0.00  0.00  0.89  0.00  0.00  0.10  0.04  0.00
  YS02001748YS02001751    1.00   0.00  0.00  0.00  0.98  0.02  0.00  0.00  0.22  0.00
  YS02001751YS02001754    1.00   0.00  0.00  0.00  0.93  0.00  0.00  0.07  0.01  0.00
  YS02001754YS02001757    1.00   0.00  0.00  0.00  0.99  0.01  0.00  0.00  0.25  0.00
  YS02001882YS02001884    1.00   0.05  0.00  0.00  0.94  0.00  0.00  0.00  0.00  0.00
  YS02001884YS02001887    1.00   0.03  0.01  0.00  0.96  0.00  0.00  0.00  0.00  0.00
  YS02001890YS02001895    1.00   0.00  0.06  0.00  0.94  0.00  0.00  0.00  0.00  0.00
  YS02001895YS02001898    1.00   0.06  0.00  0.00  0.93  0.00  0.01  0.00  0.00  0.00
  YS02001898YS02001901    1.00   0.06  0.00  0.00  0.94  0.00  0.00  0.00  0.02  0.00
  YS02001901YS02001904    1.00   0.06  0.00  0.00  0.94  0.00  0.00  0.00  0.00  0.00
  YS02001904YS02001907    1.00   0.00  0.05  0.00  0.94  0.00  0.00  0.00  0.00  0.00
  YS02001887YS02001890    1.00   0.00  0.00  0.00  0.98  0.00  0.02  0.00  0.00  0.00
  YS02001652YS02001649    1.00   0.00  0.00  0.00  1.00  0.00  0.00  0.00  0.25  0.00
  YS02001655YS02001652    1.00   0.00  0.00  0.00  0.93  0.00  0.00  0.07  0.01  0.00
  YS02001658YS02001655    1.00   0.00  0.05  0.00  0.92  0.03  0.00  0.00  0.07  0.00
  YS02001661YS02001658    1.00   0.05  0.00  0.00  0.89  0.06  0.00  0.00  0.06  0.00
  YS02001664YS02001661    1.00   0.04  0.00  0.00  0.89  0.07  0.00  0.00  0.27  0.00
  YSB1154YSB6556          1.00   0.04  0.00  0.00  0.96  0.00  0.00  0.00  0.02  0.00
  YSB1174YSB1171          1.00   0.03  0.01  0.00  0.97  0.00  0.00  0.00  0.00  0.00
  YSB1171HS02004479       1.00   0.02  0.00  0.00  0.97  0.00  0.00  0.00  0.13  0.00
  HS02004881HS02006253    1.00   0.03  0.00  0.00  0.52  0.02  0.00  0.43  0.37  0.00
  YS02001793JiankangQianchi    1.00   0.00  0.00  0.00  0.72  0.28  0.00  0.00  0.21  0.00
  YS02001757CaochengTiaoxuchi    1.00   0.00  0.08  0.00  0.92  0.00  0.00  0.00  0.00  0.00
  WSF200WS02003060        1.00   0.00  0.05  0.00  0.55  0.41  0.00  0.00  0.45  0.00
  1                       1.00   0.00  0.00  0.00  0.00  1.00  0.00  0.00  0.43  0.00
  2                       1.00   0.85  0.00  0.00  0.00  0.15  0.00  0.00  0.03  0.00
  3                       1.00   0.29  0.00  0.00  0.00  0.71  0.00  0.00  0.08  0.00
  4                       1.00   1.00  0.00  0.00  0.00  0.00  0.00  0.00  0.00  0.00
  
  
  *************************
  Conduit Surcharge Summary
  *************************
  
  ----------------------------------------------------------------------------
                                                           Hours        Hours 
                         --------- Hours Full --------   Above Full   Capacity
  Conduit                Both Ends  Upstream  Dnstream   Normal Flow   Limited
  ----------------------------------------------------------------------------
  WS02006229WS02006228        1.10      1.27      1.10      2.83         1.10
  WS02006256WS02006235        5.58      5.58      6.84      4.02         0.01
  WS02006252WS02006251        0.32      0.32      0.89      0.74         0.01
  WS02006251WS02006249        0.01      0.01      0.01      0.32         0.01
  WS02006249WS02006248        0.01      0.01      0.01      2.31         0.01
  WS02006247WS02006245        0.01      0.01      0.01      2.99         0.01
  WS02006245WS02006243        0.01      0.01      0.01      0.02         0.01
  WS02006243WS02006242        0.01      0.01      0.22      0.01         0.01
  WS02006242WS02006240        0.01      0.01      0.33      0.99         0.01
  WS02006240WS02006239        0.04      0.04      0.07      0.12         0.01
  WS02006239WS02006238        0.29      0.29      0.32      0.15         0.01
  WS02006238WS02006235        0.29      0.29      0.39      0.01         0.01
  WS02006235WS02006234        0.01      0.01      0.24      5.56         0.01
  WS02006234WS02006232        0.06      0.06      0.49      0.01         0.01
  WS02006232WS02006231        0.01      0.01      0.49      0.01         0.01
  WS02006231WS02006230        0.01      0.01      0.01      5.71         0.01
  WS02006230WS02006229        1.78      2.40      1.78      5.78         1.77
  WS02006228WS02006109        1.18      1.46      1.18      3.96         1.18
  WS02006112WS02006115        0.01      0.01      0.18      0.01         0.01
  WS02006111WS02006112        0.01      0.01      2.87      0.01         0.01
  WS02006110WS02006113        0.01      0.01      1.36      0.01         0.01
  WS02006109WS02006110        0.08      0.08      1.46      0.09         0.01
  WS02004405WS02004406        0.01      0.01      0.01      0.14         0.01
  WS02004404WS02004405        0.01      0.01      0.01      5.70         0.01
  WS02003072WS02003073        0.01      0.01      0.01      3.63         0.01
  HS02004480HS02004478        0.01      0.01      0.01      0.14         0.01
  YS02001759YS02001757        5.50      5.50      5.54      0.01         0.01
  YS02001762YS02001759        5.49      5.49      5.50      0.01         0.01
  YS02001765YS02001762        5.47      5.47      5.49      0.01         0.01
  YS02001770YS02001767        5.44      5.45      5.44      0.01         0.54
  YS02001774YS02001770        5.43      5.43      5.49      0.01         0.01
  YS02001779YS02001774        5.25      5.25      5.49      0.01         0.01
  YS02001649YS02001757        5.49      5.49      5.54      0.01         0.01
  YS02001767YS02001765        5.44      5.44      5.47      0.01         0.01
  YS02006561YS02001783        0.01      0.01      0.17      0.01         0.01
  YS02001783YS02001784        0.17      0.17      0.47      0.01         0.02
  YS02001784YS02001785        0.20      0.47      0.20      1.17         0.17
  YS02001788YS02001790        0.08      0.08      1.55      0.01         0.01
  YS02001790YS02001791        1.55      1.55      1.80      0.01         0.01
  YS02001791YS02001793        1.80      1.80      2.67      0.01         0.01
  YS02001910YS02001907        0.01      0.01      0.30      0.01         0.01
  YS02001786YS02001788        0.07      0.20      0.08      0.63         0.05
  YS02001629YS02163301        5.44      5.44      5.44      0.01         0.01
  YS02001619YS02001622        4.80      4.81      4.90      0.01         0.02
  YS02001622YS02001625        4.90      4.90      5.35      0.01         0.01
  YS02001625YS02001629        4.84      4.84      5.35      0.01         0.01
  YS02163301YS02001633        5.44      5.44      5.47      0.01         0.01
  YS02163601YS02164001        5.46      5.46      5.48      0.01         0.01
  YS02164001YS02001641        5.46      5.46      5.47      0.01         0.03
  YS02001641YS02001644        5.47      5.47      5.47      0.01         0.64
  YS02001647YS02001649        5.31      5.31      5.49      0.01         0.01
  YS02006553YS02006556        0.01      0.01      0.47      0.01         0.01
  YS02006556YS02006558        0.01      0.01      0.62      0.01         0.01
  YS02001907YS02006553        1.12      1.12      1.31      0.01         0.01
  YS02006558YS02006561        0.01      0.01      0.01      0.96         0.01
  YS02001633YS02163601        5.45      5.45      5.48      0.01         0.01
  YS02001644YS02001647        5.31      5.31      5.47      0.01         0.01
  YS02001745YS02001748        0.01      0.01      4.49      0.01         0.01
  YS02001748YS02001751        4.62      4.62      4.89      0.01         0.01
  YS02001751YS02001754        4.89      4.89      5.26      0.01         0.01
  YS02001754YS02001757        5.30      5.30      5.54      0.01         0.01
  YS02001904YS02001907        0.01      0.01      0.55      0.01         0.01
  YS02001652YS02001649        5.34      5.34      5.49      0.01         0.01
  YS02001655YS02001652        4.91      4.91      5.29      0.01         0.01
  YS02001658YS02001655        4.51      4.51      4.91      0.01         0.01
  YS02001661YS02001658        0.05      0.05      4.51      0.01         0.01
  YS02001664YS02001661        0.01      0.01      0.46      0.01         0.01
  YS02001793JiankangQianchi        2.44      2.44      4.15      0.01         0.01
  YS02001757CaochengTiaoxuchi        4.58      4.58      5.54      0.01         0.01
  3                           0.01      0.01      0.01      0.01         0.01
  
  
  ***************
  Pumping Summary
  ***************
  
  ---------------------------------------------------------------------------------------------------------
                                                  Min       Avg       Max     Total     Power    % Time Off
                        Percent   Number of      Flow      Flow      Flow    Volume     Usage    Pump Curve
  Pump                 Utilized   Start-Ups       LPS       LPS       LPS  10^6 ltr     Kw-hr    Low   High
  ---------------------------------------------------------------------------------------------------------
  CC-Pump-1               44.67           4      0.00    147.41    200.00     1.800      1.94    0.0    0.0
  CC-Pump-2               29.72           5      0.00    115.22    200.00     0.939      1.03    0.0    6.9
  JK-Pump-1               70.22           9      0.00    150.86    300.00     2.215     19.76    0.0    0.0
  JK-Pump-2               63.84          10      0.00    172.60    300.00     2.229     22.21    0.0    0.0
  XR-Pump-1               74.46           7      0.00     61.08     95.00     1.340      8.70    0.0    0.0
  XR-Pump-2               80.84          10      0.00     62.42     95.00     1.425      9.56    0.0    0.0
  XR-Pump-3               70.19          12      0.00     58.72     95.00     1.140      6.69    0.0    0.0
  XR-Pump-4               72.33           9      0.00     61.56     95.00     1.254      7.94    0.0    0.0
  

  Analysis begun on:  Thu Jan  6 01:14:14 2022
  Analysis ended on:  Thu Jan  6 01:14:18 2022
  Total elapsed time: 00:00:04