
  EPA STORM WATER MANAGEMENT MODEL - VERSION 5.1 (Build 5.3.0.dev0)
  --------------------------------------------------------------

  WARNING 04: minimum elevation drop used for Conduit WS02004404WS02004405
  WARNING 03: negative offset ignored for Link YS02001904YS02001907
  
  *********************************************************
  NOTE: The summary statistics displayed in this report are
  based on results found at every computational time step,  
  not just on results from each reporting time step.
  *********************************************************
  
  ****************
  Analysis Options
  ****************
  Flow Units ............... LPS
  Process Models:
    Rainfall/Runoff ........ YES
    RDII ................... NO
    Snowmelt ............... NO
    Groundwater ............ NO
    Flow Routing ........... YES
    Ponding Allowed ........ NO
    Water Quality .......... NO
  Infiltration Method ...... HORTON
  Flow Routing Method ...... DYNWAVE
  Surcharge Method ......... EXTRAN
  Starting Date ............ 08/28/2015 08:00:00
  Ending Date .............. 08/28/2015 15:50:00
  Antecedent Dry Days ...... 8.0
  Report Time Step ......... 00:01:00
  Wet Time Step ............ 00:01:00
  Dry Time Step ............ 00:01:00
  Routing Time Step ........ 5.00 sec
  Variable Time Step ....... YES
  Maximum Trials ........... 8
  Number of Threads ........ 4
  Head Tolerance ........... 0.001500 m
  
  
  **************************        Volume         Depth
  Runoff Quantity Continuity     hectare-m            mm
  **************************     ---------       -------
  Total Precipitation ......         1.428         3.126
  Evaporation Loss .........         0.000         0.000
  Infiltration Loss ........         0.346         0.757
  Surface Runoff ...........         0.358         0.784
  Final Storage ............         0.724         1.585
  Continuity Error (%) .....        -0.014
  
  
  **************************        Volume        Volume
  Flow Routing Continuity        hectare-m      10^6 ltr
  **************************     ---------     ---------
  Dry Weather Inflow .......         0.616         6.165
  Wet Weather Inflow .......         0.358         3.576
  Groundwater Inflow .......         0.000         0.000
  RDII Inflow ..............         0.000         0.000
  External Inflow ..........         0.102         1.024
  External Outflow .........         0.879         8.794
  Flooding Loss ............         0.151         1.510
  Evaporation Loss .........         0.000         0.000
  Exfiltration Loss ........         0.000         0.000
  Initial Stored Volume ....         0.076         0.761
  Final Stored Volume ......         0.202         2.025
  Continuity Error (%) .....        -6.968
  
  
  *************************
  Highest Continuity Errors
  *************************
  Node HS02004842 (46.54%)
  Node YS02001884 (39.38%)
  Node JK-storage (-26.18%)
  Node YS02001774 (23.95%)
  Node YSB1171 (15.51%)
  
  
  ***************************
  Time-Step Critical Elements
  ***************************
  Link WS02006252WS02006251 (80.21%)
  Link 3 (6.42%)
  Link WS02006280WS02006229 (3.99%)
  Link YS02001793JiankangQianchi (2.80%)
  Link WS02006238WS02006235 (1.60%)
  
  
  ********************************
  Highest Flow Instability Indexes
  ********************************
  Link WS02006113WS02006111 (57)
  Link WS02006111WS02006112 (9)
  Link YS02001754YS02001757 (4)
  Link YS02001767YS02001765 (3)
  Link YS02001762YS02001759 (3)
  
  
  *************************
  Routing Time Step Summary
  *************************
  Minimum Time Step           :     0.50 sec
  Average Time Step           :     1.28 sec
  Maximum Time Step           :     5.00 sec
  Percent in Steady State     :    -0.00
  Average Iterations per Step :     2.01
  Percent Not Converging      :     0.02
  
  
  ***************************
  Subcatchment Runoff Summary
  ***************************
  
  ------------------------------------------------------------------------------------------------------------------------------
                            Total      Total      Total      Total     Imperv       Perv      Total       Total     Peak  Runoff
                           Precip      Runon       Evap      Infil     Runoff     Runoff     Runoff      Runoff   Runoff   Coeff
  Subcatchment                 mm         mm         mm         mm         mm         mm         mm    10^6 ltr      LPS
  ------------------------------------------------------------------------------------------------------------------------------
  sub0                       3.13       0.00       0.00       0.22       1.64       0.00       1.64        0.00     0.41   0.525
  sub1                       3.13       0.00       0.00       0.34       1.53       0.00       1.53        0.01     2.13   0.490
  sub2                       3.13       0.00       0.00       1.16       1.07       0.00       1.07        0.01     1.87   0.342
  sub3                       3.13       0.00       0.00       1.16       1.04       0.00       1.04        0.02     3.82   0.333
  sub4                       3.13       0.00       0.00       0.34       1.42       0.00       1.42        0.03     4.25   0.454
  sub5                       3.13       0.00       0.00       0.22       1.60       0.00       1.60        0.02     3.78   0.512
  sub7                       3.13       0.00       0.00       0.28       1.59       0.00       1.59        0.01     1.34   0.509
  sub8                       3.13       0.00       0.00       0.28       1.58       0.00       1.58        0.01     2.36   0.506
  sub9                       3.13       0.00       0.00       0.28       1.58       0.00       1.58        0.01     1.75   0.506
  sub10                      3.13       0.00       0.00       0.25       1.59       0.00       1.59        0.02     3.78   0.508
  sub11                      3.13       0.00       0.00       0.25       1.60       0.00       1.60        0.02     4.45   0.513
  sub12                      3.13       0.00       0.00       0.41       1.53       0.00       1.53        0.01     3.78   0.490
  sub14                      3.13       0.00       0.00       0.28       1.58       0.00       1.58        0.02     3.42   0.505
  sub15                      3.13       0.00       0.00       0.94       1.21       0.00       1.21        0.02     4.64   0.388
  sub16                      3.13       0.00       0.00       1.03       1.18       0.00       1.18        0.01     3.32   0.376
  sub17                      3.13       0.00       0.00       1.00       1.19       0.00       1.19        0.01     2.68   0.381
  sub22                      3.13       0.00       0.00       1.34       0.99       0.00       0.99        0.06    15.22   0.318
  sub23                      3.13       0.00       0.00       1.16       1.10       0.00       1.10        0.05    12.97   0.352
  sub60                      3.13       0.00       0.00       0.38       0.83       0.00       0.83        0.25    19.76   0.267
  sub61                      3.13       0.00       0.00       0.53       0.95       0.00       0.95        0.29    25.70   0.303
  sub62                      3.13       0.00       0.00       0.25       1.00       0.00       1.00        0.31    26.04   0.319
  sub63                      3.13       0.00       0.00       0.91       0.86       0.00       0.86        0.26    24.20   0.276
  sub64                      3.13       0.00       0.00       0.47       0.79       0.00       0.79        0.24    18.71   0.254
  sub65                      3.13       0.00       0.00       0.41       0.80       0.00       0.80        0.25    18.93   0.256
  sub66                      3.13       0.00       0.00       0.91       0.71       0.00       0.71        0.22    17.38   0.226
  sub67                      3.13       0.00       0.00       0.25       1.16       0.00       1.16        0.36    34.17   0.370
  sub68                      3.13       0.00       0.00       0.44       1.02       0.00       1.02        0.31    28.59   0.327
  sub69                      3.13       0.00       0.00       0.47       1.17       0.00       1.17        0.27    28.98   0.374
  sub70                      3.13       1.19       0.00       1.47       1.24       0.00       1.24        0.28    19.61   0.287
  sub71                      3.13       0.00       0.00       0.25       0.93       0.00       0.93        0.22    17.94   0.299
  sub72                      3.13       0.00       0.00       0.22       0.59       0.00       0.59        0.12     7.87   0.187
  sub73                      3.13       1.20       0.00       1.47       1.15       0.00       1.15        0.27    16.86   0.265
  sub74                      3.13       0.00       0.00       2.34       0.36       0.00       0.36        0.14    16.29   0.115
  
  
  ******************
  Node Depth Summary
  ******************
  
  ---------------------------------------------------------------------------------
                                 Average  Maximum  Maximum  Time of Max    Reported
                                   Depth    Depth      HGL   Occurrence   Max Depth
  Node                 Type       Meters   Meters   Meters  days hr:min      Meters
  ---------------------------------------------------------------------------------
  WS02001211           JUNCTION     0.57     0.69     5.53     0  01:10        0.69
  WS02001212           JUNCTION     0.31     0.40     5.46     0  01:10        0.40
  WS02001213           JUNCTION     0.52     0.63     5.39     0  04:04        0.63
  WS02003069           JUNCTION     0.33     0.45     5.03     0  04:06        0.45
  WS02003072           JUNCTION     0.40     0.52     4.89     0  04:07        0.52
  WS02003073           JUNCTION     0.24     0.31     4.37     0  04:07        0.31
  WS02003060           JUNCTION     0.30     0.40     5.33     0  04:05        0.40
  WS02003066           JUNCTION     0.18     0.24     5.80     0  03:36        0.24
  WS02003059           JUNCTION     0.58     0.69     5.37     0  04:05        0.69
  WS02003067           JUNCTION     0.47     0.61     5.93     0  03:36        0.61
  WS02004401           JUNCTION     0.54     0.69     6.69     0  03:31        0.69
  WS02004402           JUNCTION     0.58     0.72     6.68     0  03:31        0.72
  WS02004403           JUNCTION     0.60     0.75     6.68     0  03:31        0.74
  WS02004404           JUNCTION     0.68     0.82     6.67     0  03:31        0.82
  WS02004406           JUNCTION     0.69     0.83     6.66     0  03:31        0.83
  WS02004409           JUNCTION     0.36     0.51     6.28     0  03:35        0.51
  WS02004410           JUNCTION     0.38     0.53     6.25     0  03:35        0.53
  WS02004411           JUNCTION     0.40     0.55     6.23     0  03:35        0.55
  WS02004412           JUNCTION     0.42     0.57     6.21     0  03:36        0.57
  WS02004413           JUNCTION     0.58     0.73     6.20     0  03:36        0.73
  WS02004405           JUNCTION     0.67     0.82     6.67     0  03:31        0.82
  WS02006109           JUNCTION     0.60     0.78     7.40     0  03:57        0.78
  WS02006110           JUNCTION     0.62     0.77     7.36     0  03:57        0.77
  WS02006111           JUNCTION     0.16     0.23     6.94     0  03:58        0.23
  WS02006112           JUNCTION     0.69     0.86     6.74     0  03:30        0.86
  WS02006113           JUNCTION     0.25     0.36     7.25     0  03:57        0.36
  WS02006115           JUNCTION     0.42     0.58     6.72     0  03:31        0.58
  WS02006116           JUNCTION     0.51     0.66     6.70     0  03:30        0.66
  WS02006230           JUNCTION     0.52     0.75     7.49     0  03:56        0.75
  WS02006231           JUNCTION     0.34     0.51     7.63     0  03:56        0.50
  WS02006232           JUNCTION     0.47     0.66     7.69     0  03:56        0.65
  WS02006234           JUNCTION     0.37     0.58     7.73     0  03:56        0.58
  WS02006235           JUNCTION     0.40     0.61     7.77     0  03:55        0.61
  WS02006238           JUNCTION     0.42     0.64     7.78     0  03:55        0.64
  WS02006240           JUNCTION     0.31     0.54     7.83     0  03:56        0.53
  WS02006242           JUNCTION     0.36     0.60     7.87     0  03:56        0.60
  WS02006243           JUNCTION     0.25     0.47     7.89     0  03:55        0.47
  WS02006245           JUNCTION     0.25     0.46     7.94     0  03:49        0.45
  WS02006247           JUNCTION     0.28     0.49     7.99     0  03:49        0.49
  WS02006248           JUNCTION     0.23     0.45     8.03     0  03:49        0.45
  WS02006249           JUNCTION     0.27     0.50     8.10     0  03:48        0.49
  WS02006239           JUNCTION     0.37     0.59     7.80     0  03:56        0.59
  WS02006251           JUNCTION     0.26     0.51     8.18     0  03:48        0.49
  WS02006252           JUNCTION     0.24     0.55     8.79     0  03:48        0.51
  WS02006253           JUNCTION     0.29     0.54     8.19     0  03:48        0.54
  WS02006256           JUNCTION     0.76     1.19     8.12     0  00:20        1.18
  WS02004138           JUNCTION     0.12     0.17     7.42     0  01:00        0.17
  WS02004407           JUNCTION     0.16     0.23     6.54     0  03:31        0.23
  WS02006228           JUNCTION     0.58     0.77     7.42     0  03:57        0.77
  WS02006229           JUNCTION     0.55     0.75     7.44     0  03:23        0.75
  WS02006280           JUNCTION     0.04     0.08     8.35     0  02:33        0.08
  WS02006284           JUNCTION     0.33     0.39     8.79     0  02:32        0.39
  WS02006287           JUNCTION     0.06     0.12     9.08     0  02:32        0.12
  WSF200               JUNCTION     0.16     0.23     5.46     0  03:36        0.23
  HS02004901           JUNCTION     0.09     0.15     9.98     0  02:31        0.15
  HS02004881           JUNCTION     0.00     0.01     9.04     0  02:31        0.01
  HS02004876           JUNCTION     0.02     0.06     9.09     0  02:31        0.06
  HS02004870           JUNCTION     0.01     0.02     9.31     0  02:30        0.02
  HS02004862           JUNCTION     0.01     0.02     9.40     0  02:32        0.02
  HS02004856           JUNCTION     0.07     0.08     9.51     0  02:30        0.08
  HS02004852           JUNCTION     0.00     0.01     9.52     0  02:32        0.01
  HS02004848           JUNCTION     0.00     0.01     9.61     0  02:27        0.01
  HS02004842           JUNCTION     0.32     0.34     9.61     0  02:26        0.34
  HS02004837           JUNCTION     0.02     0.03     9.61     0  02:27        0.03
  HS02004830           JUNCTION     0.03     0.04     9.51     0  02:28        0.04
  HS02004824           JUNCTION     0.02     0.02     9.43     0  02:31        0.02
  HS02004817           JUNCTION     0.41     0.46     9.31     0  02:32        0.46
  HS02004807           JUNCTION     0.10     0.14     9.31     0  02:32        0.14
  HS02004802           JUNCTION     0.13     0.17     9.30     0  02:32        0.17
  HS02004799           JUNCTION     0.08     0.15     9.36     0  02:30        0.15
  HS02004792           JUNCTION     0.01     0.04     9.57     0  02:29        0.04
  HS02004788           JUNCTION     0.01     0.03     9.93     0  02:32        0.03
  HS02004785           JUNCTION     0.02     0.07     9.97     0  02:32        0.07
  HS02004777           JUNCTION     0.12     0.18     9.97     0  02:31        0.18
  HS02004770           JUNCTION     0.09     0.14     9.98     0  02:31        0.14
  HS02004480           JUNCTION     0.05     0.11     9.35     0  02:31        0.11
  HS02004479           JUNCTION     0.08     0.15     9.35     0  02:31        0.15
  HS02004478           JUNCTION     0.04     0.07     9.30     0  02:32        0.07
  YS02001745           JUNCTION     0.05     0.06     7.58     0  03:01        0.06
  YS02001748           JUNCTION     0.05     0.07     7.15     0  03:01        0.07
  YS02001751           JUNCTION     0.14     0.21     7.09     0  03:14        0.21
  YS02001754           JUNCTION     0.38     0.49     7.09     0  03:17        0.48
  YS02001762           JUNCTION     0.57     0.69     7.09     0  03:09        0.69
  YS02001765           JUNCTION     0.52     0.64     7.09     0  03:11        0.64
  YS02001767           JUNCTION     0.49     0.60     7.09     0  03:08        0.60
  YS02001770           JUNCTION     0.48     0.59     7.09     0  03:08        0.59
  YS02001774           JUNCTION     0.55     0.67     7.09     0  03:07        0.67
  YS02001779           JUNCTION     0.31     0.40     7.09     0  03:07        0.40
  YS02001882           JUNCTION     0.18     0.25     6.97     0  03:02        0.25
  YS02001884           JUNCTION     0.27     0.35     6.97     0  03:01        0.35
  YS02001759           JUNCTION     0.60     0.72     7.09     0  03:11        0.72
  YS02001887           JUNCTION     0.35     0.43     6.97     0  03:01        0.43
  YS02001890           JUNCTION     0.38     0.46     6.96     0  03:02        0.46
  YS02001898           JUNCTION     0.15     0.22     6.95     0  03:03        0.22
  YS02001901           JUNCTION     0.27     0.34     6.95     0  03:02        0.34
  YS02001904           JUNCTION     0.25     0.32     6.95     0  03:02        0.32
  YS02001907           JUNCTION     0.57     0.66     6.95     0  03:03        0.66
  YS02001910           JUNCTION     0.36     0.44     6.95     0  03:03        0.44
  YS02001915           JUNCTION     0.17     0.23     6.95     0  03:03        0.23
  YS02001918           JUNCTION     0.05     0.06     7.12     0  03:06        0.06
  YS02001619           JUNCTION     0.11     0.17     7.10     0  03:13        0.17
  YS02001629           JUNCTION     0.43     0.54     7.09     0  03:14        0.54
  YS02001641           JUNCTION     0.54     0.65     7.09     0  03:15        0.65
  YS02001644           JUNCTION     0.54     0.66     7.09     0  03:15        0.66
  YS02001652           JUNCTION     0.39     0.49     7.09     0  03:16        0.49
  YS02001655           JUNCTION     0.17     0.24     7.09     0  03:10        0.24
  YS02001920           JUNCTION     0.13     0.14     7.15     0  03:05        0.14
  YS02001923           JUNCTION     0.03     0.04     7.30     0  03:03        0.04
  YS02001926           JUNCTION     0.09     0.10     7.55     0  03:03        0.10
  YS02001929           JUNCTION     0.04     0.04     7.74     0  03:01        0.04
  YS02001658           JUNCTION     0.05     0.07     7.21     0  03:00        0.07
  YS02001661           JUNCTION     0.11     0.14     7.54     0  03:00        0.14
  YS02001664           JUNCTION     0.04     0.06     7.99     0  02:59        0.06
  YS02001622           JUNCTION     0.12     0.19     7.09     0  03:13        0.19
  YS02001633           JUNCTION     0.52     0.64     7.09     0  03:13        0.64
  YS02001649           JUNCTION     0.58     0.70     7.09     0  03:15        0.70
  YS02001757           JUNCTION     0.70     0.83     7.09     0  03:15        0.83
  YS02001895           JUNCTION     0.15     0.21     6.96     0  03:02        0.21
  YS02001625           JUNCTION     0.39     0.49     7.09     0  03:13        0.49
  YS02163301           JUNCTION     0.46     0.57     7.09     0  03:13        0.57
  YS02163601           JUNCTION     0.58     0.69     7.09     0  03:13        0.69
  YS02164001           JUNCTION     0.52     0.63     7.09     0  03:12        0.63
  YS02001647           JUNCTION     0.38     0.48     7.09     0  03:10        0.48
  YSB1154              JUNCTION     0.22     0.29     9.35     0  02:31        0.29
  YSB6556              JUNCTION     0.11     0.18     9.35     0  02:31        0.18
  YSB1174              JUNCTION     0.17     0.24     9.35     0  02:31        0.24
  YSB1171              JUNCTION     0.37     0.45     9.35     0  02:31        0.45
  YS02006553           JUNCTION     0.58     0.67     6.95     0  03:03        0.67
  YS02006561           JUNCTION     0.08     0.12     6.78     0  03:03        0.12
  YS02006556           JUNCTION     0.55     0.64     6.95     0  03:03        0.64
  YS02006558           JUNCTION     0.60     0.68     6.95     0  03:03        0.68
  YS02001783           JUNCTION     0.13     0.20     6.34     0  03:04        0.20
  YS02001784           JUNCTION     0.17     0.24     6.30     0  03:04        0.24
  YS02001786           JUNCTION     0.14     0.20     6.23     0  03:04        0.20
  YS02001788           JUNCTION     0.10     0.14     6.12     0  03:05        0.14
  YS02001790           JUNCTION     0.12     0.17     5.82     0  03:05        0.17
  YS02001791           JUNCTION     0.08     0.12     5.59     0  03:05        0.12
  YS02001793           JUNCTION     0.05     0.08     4.91     0  02:57        0.08
  WS02004139           JUNCTION     0.51     0.63     5.54     0  01:10        0.63
  WSC                  OUTFALL      0.23     0.31     0.98     0  04:08        0.31
  3                    OUTFALL      0.01     0.19     6.19     0  00:20        0.18
  4                    OUTFALL      0.00     0.00     7.00     0  00:00        0.00
  5                    OUTFALL      0.00     0.00     5.00     0  00:00        0.00
  JK-storage           STORAGE      0.17     3.00     3.80     0  00:10        3.00
  CC-storage           STORAGE      0.00     0.03     7.03     0  03:06        0.03
  XR-storage           STORAGE      7.53     7.72     5.72     0  01:56        7.72
  
  
  *******************
  Node Inflow Summary
  *******************
  
  -------------------------------------------------------------------------------------------------
                                  Maximum  Maximum                  Lateral       Total        Flow
                                  Lateral    Total  Time of Max      Inflow      Inflow     Balance
                                   Inflow   Inflow   Occurrence      Volume      Volume       Error
  Node                 Type           LPS      LPS  days hr:min    10^6 ltr    10^6 ltr     Percent
  -------------------------------------------------------------------------------------------------
  WS02001211           JUNCTION      7.35   292.62     0  01:10       0.207         4.4       0.689
  WS02001212           JUNCTION      0.00   292.58     0  01:10           0        4.37       0.439
  WS02001213           JUNCTION      0.00   292.56     0  01:10           0        4.35       0.344
  WS02003069           JUNCTION      0.32   595.57     0  04:05     0.00902        8.57       0.207
  WS02003072           JUNCTION      0.00   595.28     0  04:06           0        8.55       0.284
  WS02003073           JUNCTION      1.82   596.94     0  04:07      0.0514        8.58       0.299
  WS02003060           JUNCTION     16.53   595.29     0  04:05       0.466        8.58       0.204
  WS02003066           JUNCTION      0.00   328.90     0  03:36           0        3.81       0.062
  WS02003059           JUNCTION      0.00   292.51     0  01:10           0        4.34       0.712
  WS02003067           JUNCTION      0.00   328.89     0  03:36           0        3.82       0.153
  WS02004401           JUNCTION      0.00   336.40     0  04:00           0        3.96       0.336
  WS02004402           JUNCTION      0.00   333.90     0  04:00           0        3.95       0.334
  WS02004403           JUNCTION      0.00   332.71     0  04:01           0        3.94       0.318
  WS02004404           JUNCTION      0.16   332.21     0  04:01     0.00457        3.93       0.256
  WS02004406           JUNCTION      0.00   331.49     0  03:30           0         3.9       0.631
  WS02004409           JUNCTION      0.00   331.30     0  03:31           0        3.88       0.176
  WS02004410           JUNCTION      0.00   330.24     0  03:32           0        3.87       0.224
  WS02004411           JUNCTION      0.00   329.44     0  03:33           0        3.86       0.253
  WS02004412           JUNCTION      0.00   329.13     0  03:35           0        3.85       0.303
  WS02004413           JUNCTION      0.00   328.99     0  03:35           0        3.84       0.493
  WS02004405           JUNCTION      0.04   331.78     0  04:01     0.00107        3.92       0.384
  WS02006109           JUNCTION      1.23   353.36     0  03:57      0.0347        4.02       0.221
  WS02006110           JUNCTION      0.00   353.23     0  03:57           0        4.01       0.302
  WS02006111           JUNCTION      0.00   358.50     0  03:57           0        3.99       0.042
  WS02006112           JUNCTION      2.68   353.12     0  03:58      0.0102           4       0.504
  WS02006113           JUNCTION      0.00   352.89     0  03:57           0           4       0.087
  WS02006115           JUNCTION      0.00   347.94     0  03:58           0        3.98       0.245
  WS02006116           JUNCTION      0.00   341.07     0  03:58           0        3.97       0.254
  WS02006230           JUNCTION     10.28   335.00     0  03:56        0.29        3.53       0.166
  WS02006231           JUNCTION      0.00   326.82     0  03:56           0        3.24       0.107
  WS02006232           JUNCTION      0.00   327.65     0  03:56           0        3.25       0.247
  WS02006234           JUNCTION      0.00   329.41     0  03:55           0        3.25      -0.011
  WS02006235           JUNCTION      0.00   330.39     0  03:55           0        3.29       0.177
  WS02006238           JUNCTION      0.00   264.75     0  03:50           0        2.02       0.095
  WS02006240           JUNCTION      0.00   273.71     0  03:50           0        1.99       0.049
  WS02006242           JUNCTION      0.00   282.38     0  03:50           0        1.97       0.066
  WS02006243           JUNCTION      0.00   289.91     0  03:49           0        1.96      -0.191
  WS02006245           JUNCTION      0.00   295.79     0  03:49           0        1.96       0.226
  WS02006247           JUNCTION      0.00   301.98     0  03:49           0        1.96       0.040
  WS02006248           JUNCTION      0.00   308.57     0  03:48           0        1.96      -0.133
  WS02006249           JUNCTION      0.00   322.12     0  03:48           0        1.97       0.211
  WS02006239           JUNCTION      0.00   270.14     0  03:50           0           2      -0.044
  WS02006251           JUNCTION      0.08   348.96     0  03:48     0.00217           2      -0.020
  WS02006252           JUNCTION      0.00   349.59     0  03:48           0        1.91       0.004
  WS02006253           JUNCTION      0.41    31.64     0  06:01     0.00133      0.0882       0.067
  WS02006256           JUNCTION      0.00   599.15     0  00:20           0        1.54       0.131
  WS02004138           JUNCTION      0.00   285.00     0  01:01           0        4.22       0.084
  WS02004407           JUNCTION      0.00   331.34     0  03:31           0        3.88       0.081
  WS02006228           JUNCTION      0.00   352.38     0  03:56           0        3.99       0.176
  WS02006229           JUNCTION      0.00   352.63     0  03:56           0           4       0.169
  WS02006280           JUNCTION      0.00    66.27     0  02:33           0       0.472       0.016
  WS02006284           JUNCTION      0.10    66.27     0  02:32      0.0027       0.473       0.253
  WS02006287           JUNCTION      0.00    66.18     0  02:32           0       0.471       0.147
  WSF200               JUNCTION      0.00   328.90     0  03:36           0        3.81       0.049
  HS02004901           JUNCTION      3.32     3.32     0  02:19      0.0123      0.0125      16.406
  HS02004881           JUNCTION      1.34    10.81     0  02:30     0.00536      0.0551       0.207
  HS02004876           JUNCTION      2.13     9.66     0  02:29      0.0102      0.0502       1.020
  HS02004870           JUNCTION      2.36     7.59     0  02:29      0.0101      0.0402       0.259
  HS02004862           JUNCTION      2.07     5.38     0  02:30      0.0156      0.0302       0.543
  HS02004856           JUNCTION      1.75     3.34     0  02:29      0.0076      0.0161       9.781
  HS02004852           JUNCTION      0.00     1.71     0  02:30           0     0.00851       0.519
  HS02004848           JUNCTION      3.82     3.82     0  02:31      0.0234      0.0234       0.169
  HS02004842           JUNCTION      0.00     4.48     0  00:03           0      0.0279      87.047
  HS02004837           JUNCTION     10.13    12.21     0  02:26       0.197       0.212       0.385
  HS02004830           JUNCTION      0.15    12.35     0  02:27     0.00423       0.202       0.613
  HS02004824           JUNCTION      4.30    16.61     0  02:31       0.031       0.232       0.233
  HS02004817           JUNCTION      0.60    17.21     0  02:31      0.0169       0.248       7.197
  HS02004807           JUNCTION      4.45    21.26     0  02:30      0.0186        0.25       1.717
  HS02004802           JUNCTION      0.00    21.24     0  02:32           0       0.246       1.678
  HS02004799           JUNCTION      3.42    38.33     0  02:29       0.015       0.212       1.060
  HS02004792           JUNCTION     15.50    35.07     0  02:29      0.0707       0.198       0.213
  HS02004788           JUNCTION      6.31    20.71     0  02:31      0.0679       0.128       0.307
  HS02004785           JUNCTION      0.15    14.74     0  02:30     0.00423      0.0623       0.763
  HS02004777           JUNCTION      0.03    14.93     0  02:27    0.000846      0.0624       9.014
  HS02004770           JUNCTION     12.97    15.66     0  02:22      0.0525      0.0632       5.159
  HS02004480           JUNCTION      0.00    45.02     0  02:30           0       0.241       0.262
  HS02004479           JUNCTION      0.00     6.81     0  02:33           0      0.0413       1.791
  HS02004478           JUNCTION      0.00    66.18     0  02:31           0       0.472       0.149
  YS02001745           JUNCTION     19.77    19.77     0  03:01       0.253       0.253       0.098
  YS02001748           JUNCTION      0.04    19.80     0  03:01     0.00127       0.254       0.050
  YS02001751           JUNCTION      0.01    35.53     0  04:52     0.00031       0.317       0.582
  YS02001754           JUNCTION      0.26   124.66     0  05:02     0.00733       0.587       1.836
  YS02001762           JUNCTION      0.00    33.59     0  02:52           0       0.339       4.239
  YS02001765           JUNCTION      0.00    46.44     0  04:58           0        0.33       4.624
  YS02001767           JUNCTION      0.54    40.61     0  04:51      0.0151       0.335       6.088
  YS02001770           JUNCTION     26.19    31.55     0  02:53       0.311       0.325       5.352
  YS02001774           JUNCTION      0.00    15.38     0  02:41           0      0.0619      31.485
  YS02001779           JUNCTION      0.01     7.54     0  04:34    0.000141      0.0331      18.734
  YS02001882           JUNCTION      0.00     1.43     0  02:12           0     0.00235     107.133
  YS02001884           JUNCTION      0.00     4.54     0  02:11           0     0.00981      64.961
  YS02001759           JUNCTION     25.74    62.05     0  02:52       0.293       0.605       2.697
  YS02001887           JUNCTION     34.62    34.62     0  02:57       0.369       0.373       1.652
  YS02001890           JUNCTION      0.00    34.44     0  02:59           0       0.358       1.909
  YS02001898           JUNCTION      0.00    34.28     0  03:01           0       0.349       0.432
  YS02001901           JUNCTION      0.00    34.32     0  03:03           0       0.349       1.294
  YS02001904           JUNCTION      0.00    34.25     0  03:02           0       0.349       1.211
  YS02001907           JUNCTION      0.00    62.73     0  03:04           0       0.756       2.767
  YS02001910           JUNCTION      0.00    28.70     0  03:01           0       0.417       2.165
  YS02001915           JUNCTION     17.96    28.61     0  03:01       0.221        0.42       0.791
  YS02001918           JUNCTION      0.00    10.78     0  03:05           0         0.2       0.312
  YS02001619           JUNCTION     17.38    17.38     0  03:01       0.216       0.216       0.276
  YS02001629           JUNCTION      0.00    20.63     0  03:07           0         0.2       3.058
  YS02001641           JUNCTION      0.00    41.48     0  03:15           0       0.412       3.167
  YS02001644           JUNCTION     18.75    57.68     0  02:57       0.242       0.635       2.481
  YS02001652           JUNCTION      0.00    35.37     0  04:58           0       0.294       3.236
  YS02001655           JUNCTION      0.15    24.35     0  03:00     0.00434       0.266       1.216
  YS02001920           JUNCTION      2.87    10.79     0  03:03      0.0809       0.201       0.724
  YS02001923           JUNCTION      0.04     7.92     0  03:03     0.00106        0.12       0.133
  YS02001926           JUNCTION      0.05     7.91     0  03:01     0.00147       0.121       0.992
  YS02001929           JUNCTION      7.87     7.87     0  03:01       0.119       0.119       0.122
  YS02001658           JUNCTION      0.00    24.20     0  03:00           0        0.26       0.065
  YS02001661           JUNCTION      0.00    24.20     0  02:59           0       0.261       0.248
  YS02001664           JUNCTION     24.20    24.20     0  02:59       0.261       0.261       0.045
  YS02001622           JUNCTION      0.00    19.09     0  02:57           0       0.216       1.255
  YS02001633           JUNCTION     19.13    41.78     0  02:57       0.251       0.437       4.365
  YS02001649           JUNCTION      0.00    88.19     0  03:24           0       0.879       2.750
  YS02001757           JUNCTION      0.00   220.39     0  04:48           0        1.85       3.855
  YS02001895           JUNCTION      0.00    34.29     0  03:00           0       0.352       0.735
  YS02001625           JUNCTION      0.00    21.12     0  02:56           0       0.213       7.238
  YS02163301           JUNCTION      0.00    23.77     0  02:57           0       0.199       6.526
  YS02163601           JUNCTION      0.11    43.03     0  02:58      0.0031       0.419       4.833
  YS02164001           JUNCTION      0.00    42.07     0  03:15           0       0.408       2.946
  YS02001647           JUNCTION      0.00    59.87     0  03:05           0        0.61       2.045
  YSB1154              JUNCTION      3.78     3.78     0  02:24      0.0181      0.0196       7.949
  YSB6556              JUNCTION      0.00     3.71     0  02:26           0      0.0207       6.372
  YSB1174              JUNCTION      3.78     3.78     0  02:18      0.0134      0.0144       9.769
  YSB1171              JUNCTION      0.00     6.91     0  02:28           0      0.0407      18.353
  YS02006553           JUNCTION      0.00    62.84     0  03:04           0       0.743       1.814
  YS02006561           JUNCTION      0.00    91.66     0  03:03           0        1.04       0.039
  YS02006556           JUNCTION      0.00    62.91     0  03:04           0       0.745       1.288
  YS02006558           JUNCTION     29.47    91.68     0  03:03       0.339        1.06       0.384
  YS02001783           JUNCTION      0.00    91.65     0  03:03           0        1.04       0.091
  YS02001784           JUNCTION      1.06    92.70     0  03:04      0.0299        1.07       0.154
  YS02001786           JUNCTION      0.06    92.74     0  03:04     0.00159        1.07       0.155
  YS02001788           JUNCTION      0.07    92.80     0  03:04       0.002        1.07       0.083
  YS02001790           JUNCTION      0.15    92.96     0  03:05     0.00437        1.07       0.108
  YS02001791           JUNCTION      0.00    92.95     0  03:05           0        1.07       0.051
  YS02001793           JUNCTION      0.00    92.95     0  03:05           0        1.07       0.027
  WS02004139           JUNCTION      0.32   285.35     0  01:00     0.00905        4.22       0.756
  WSC                  OUTFALL       0.00   596.71     0  04:08           0        8.56       0.000
  3                    OUTFALL       0.00   444.59     0  00:20           0       0.238       0.000
  4                    OUTFALL       0.00     0.00     0  00:00           0           0       0.000 ltr
  5                    OUTFALL       0.00     0.00     0  00:00           0           0       0.000 ltr
  JK-storage           STORAGE       0.00    93.33     0  02:58           0        1.22     -20.747
  CC-storage           STORAGE       0.00   146.22     0  03:20           0        1.51     -23.386
  XR-storage           STORAGE     232.63   232.63     0  03:01        6.05        6.65      -0.013
  
  
  **********************
  Node Surcharge Summary
  **********************
  
  Surcharging occurs when water rises above the top of the highest conduit.
  ---------------------------------------------------------------------
                                               Max. Height   Min. Depth
                                   Hours       Above Crown    Below Rim
  Node                 Type      Surcharged         Meters       Meters
  ---------------------------------------------------------------------
  WS02006252           JUNCTION        0.12          0.149        0.951
  
  
  *********************
  Node Flooding Summary
  *********************
  
  Flooding refers to all water that overflows a node, whether it ponds or not.
  --------------------------------------------------------------------------
                                                             Total   Maximum
                                 Maximum   Time of Max       Flood    Ponded
                        Hours       Rate    Occurrence      Volume     Depth
  Node                 Flooded       LPS   days hr:min    10^6 ltr    Meters
  --------------------------------------------------------------------------
  XR-storage              4.43    219.70      0  04:40       1.510     0.000
  
  
  **********************
  Storage Volume Summary
  **********************
  
  --------------------------------------------------------------------------------------------------
                         Average     Avg  Evap Exfil       Maximum     Max    Time of Max    Maximum
                          Volume    Pcnt  Pcnt  Pcnt        Volume    Pcnt     Occurrence    Outflow
  Storage Unit           1000 m3    Full  Loss  Loss       1000 m3    Full    days hr:min        LPS
  --------------------------------------------------------------------------------------------------
  JK-storage               0.009       3     0     0         0.151      52       0  00:10     599.15
  CC-storage               0.010       0     0     0         0.078       0       0  03:06     349.59
  XR-storage               0.904      98     0     0         0.926     100       0  01:56     285.00
  
  
  ***********************
  Outfall Loading Summary
  ***********************
  
  -----------------------------------------------------------
                         Flow       Avg       Max       Total
                         Freq      Flow      Flow      Volume
  Outfall Node           Pcnt       LPS       LPS    10^6 ltr
  -----------------------------------------------------------
  WSC                  100.00    357.52    596.71       8.555
  3                     19.59     79.92    444.59       0.238
  4                      0.00      0.00      0.00       0.000
  5                      0.00      0.00      0.00       0.000
  -----------------------------------------------------------
  System                29.90    437.44    696.87       8.794
  
  
  ********************
  Link Flow Summary
  ********************
  
  -----------------------------------------------------------------------------
                                 Maximum  Time of Max   Maximum    Max/    Max/
                                  |Flow|   Occurrence   |Veloc|    Full    Full
  Link                 Type          LPS  days hr:min     m/sec    Flow   Depth
  -----------------------------------------------------------------------------
  WS02003066WSF200     CONDUIT    328.90     0  03:36      2.49    0.06    0.18
  WS02006287WS02006284 CONDUIT     66.18     0  02:32      1.07    0.03    0.13
  WS02006284WS02006280 CONDUIT     66.27     0  02:33      1.33    0.03    0.11
  WS02006280WS02006229 CONDUIT     66.27     0  02:33      2.13    0.01    0.08
  WS02006229WS02006228 CONDUIT    352.38     0  03:56      0.73    1.17    0.93
  WS02006256WS02006235 CONDUIT    158.12     0  00:13      2.30    1.67    1.00
  WS02006253WS02006251 CONDUIT     59.90     0  06:00      0.35    0.18    0.74
  WS02006252WS02006251 CONDUIT    348.89     0  03:48      2.78    1.28    1.00
  WS02006251WS02006249 CONDUIT    322.12     0  03:48      1.09    0.93    0.72
  WS02006249WS02006248 CONDUIT    308.57     0  03:48      1.15    1.69    0.66
  WS02006248WS02006247 CONDUIT    301.98     0  03:49      1.12    0.66    0.66
  WS02006247WS02006245 CONDUIT    295.79     0  03:49      1.08    2.35    0.67
  WS02006245WS02006243 CONDUIT    289.91     0  03:49      1.13    0.86    0.65
  WS02006243WS02006242 CONDUIT    282.38     0  03:50      0.99    0.60    0.74
  WS02006242WS02006240 CONDUIT    273.71     0  03:50      0.90    1.09    0.80
  WS02006240WS02006239 CONDUIT    270.14     0  03:50      0.97    0.85    0.78
  WS02006239WS02006238 CONDUIT    264.75     0  03:50      0.87    0.85    0.87
  WS02006238WS02006235 CONDUIT    258.30     0  03:50      0.91    0.58    0.89
  WS02006235WS02006234 CONDUIT    329.41     0  03:55      0.98    3.48    0.83
  WS02006234WS02006232 CONDUIT    327.65     0  03:56      1.02    0.66    0.88
  WS02006232WS02006231 CONDUIT    326.82     0  03:56      0.97    0.68    0.82
  WS02006231WS02006230 CONDUIT    324.72     0  03:56      1.31    4.93    0.62
  WS02006230WS02006229 CONDUIT    333.16     0  03:56      0.87    7.41    1.00
  WS02006228WS02006109 CONDUIT    352.13     0  03:57      0.71    1.54    0.96
  WS02006116WS02004401 CONDUIT    336.40     0  04:00      0.73    0.46    0.68
  WS02006115WS02006116 CONDUIT    341.07     0  03:58      0.79    0.44    0.59
  WS02006113WS02006111 CONDUIT    358.50     0  03:57      2.13    0.43    0.37
  WS02006112WS02006115 CONDUIT    347.94     0  03:58      0.60    0.21    0.71
  WS02006111WS02006112 CONDUIT    352.94     0  03:58      1.31    0.17    0.64
  WS02006110WS02006113 CONDUIT    352.89     0  03:57      0.93    0.32    0.71
  WS02006109WS02006110 CONDUIT    353.23     0  03:57      0.74    0.68    0.90
  WS02004411WS02004412 CONDUIT    329.13     0  03:35      0.73    0.47    0.56
  WS02004401WS02004402 CONDUIT    333.90     0  04:00      0.77    0.40    0.71
  WS02004413WS02003067 CONDUIT    328.89     0  03:36      0.85    0.14    0.49
  WS02004412WS02004413 CONDUIT    328.99     0  03:35      0.61    0.22    0.65
  WS02004410WS02004411 CONDUIT    329.44     0  03:33      0.77    0.45    0.54
  WS02004409WS02004410 CONDUIT    330.24     0  03:32      0.83    0.43    0.52
  WS02004407WS02004409 CONDUIT    331.30     0  03:31      1.30    0.12    0.37
  WS02004406WS02004407 CONDUIT    331.34     0  03:31      0.78    0.15    0.53
  WS02004405WS02004406 CONDUIT    331.49     0  03:30      0.62    0.65    0.83
  WS02004404WS02004405 CONDUIT    331.75     0  04:01      0.85    3.25    0.82
  WS02004403WS02004404 CONDUIT    332.05     0  04:01      0.74    0.24    0.78
  WS02004402WS02004403 CONDUIT    332.71     0  04:01      0.75    0.48    0.73
  WS02004139WS02001211 CONDUIT    285.27     0  01:10      0.69    0.36    0.51
  WS02004138WS02004139 CONDUIT    285.03     0  01:00      2.95    0.06    0.37
  WS02003067WS02003066 CONDUIT    328.90     0  03:36      0.91    0.11    0.35
  WS02001213WS02003059 CONDUIT    292.51     0  01:10      0.65    0.48    0.65
  WS02001212WS02001213 CONDUIT    292.56     0  01:10      1.19    0.45    0.35
  WS02001211WS02001212 CONDUIT    292.58     0  01:10      0.67    0.22    0.54
  WS02003072WS02003073 CONDUIT    595.12     0  04:07      1.47    1.29    0.39
  WS02003069WS02003072 CONDUIT    595.28     0  04:06      1.40    0.29    0.40
  WS02003060WS02003069 CONDUIT    595.25     0  04:05      1.67    0.23    0.35
  WS02003059WS02003060 CONDUIT    292.43     0  01:11      0.82    0.19    0.54
  HS02004901HS02004770 CONDUIT      2.90     0  02:27      0.02    0.01    0.21
  HS02004876HS02004881 CONDUIT      9.61     0  02:31      0.26    0.10    0.05
  HS02004870HS02004876 CONDUIT      7.58     0  02:30      0.19    0.01    0.06
  HS02004842HS02004848 CONDUIT      2.18     0  02:38      0.01    0.00    0.25
  HS02004837HS02004842 CONDUIT      4.48     0  00:03      0.42    0.00    0.27
  HS02004830HS02004837 CONDUIT     12.20     0  02:27      0.33    0.01    0.05
  HS02004824HS02004830 CONDUIT     12.35     0  02:28      0.38    0.02    0.05
  HS02004817HS02004824 CONDUIT     16.61     0  02:31      0.17    0.01    0.34
  HS02004770HS02004777 CONDUIT     14.90     0  02:27      0.09    0.03    0.23
  HS02004799HS02004480 CONDUIT     38.26     0  02:30      0.31    0.05    0.18
  HS02004792HS02004799 CONDUIT     35.05     0  02:29      0.36    0.02    0.14
  HS02004788HS02004792 CONDUIT     20.69     0  02:32      0.53    0.01    0.06
  HS02004785HS02004788 CONDUIT     14.67     0  02:32      0.28    0.11    0.07
  HS02004777HS02004785 CONDUIT     14.59     0  02:30      0.12    0.02    0.18
  HS02004480HS02004478 CONDUIT     44.99     0  02:31      0.57    0.19    0.11
  HS02004479HS02004480 CONDUIT      6.87     0  02:34      0.15    0.01    0.18
  HS02004862HS02004870 CONDUIT      5.36     0  02:31      0.28    0.01    0.03
  HS02004848HS02004852 CONDUIT      1.71     0  02:30      0.17    0.00    0.01
  HS02004856HS02004862 CONDUIT      3.33     0  02:31      0.19    0.00    0.02
  HS02004852HS02004856 CONDUIT      1.69     0  02:32      0.04    0.00    0.07
  HS02004802HS02004478 CONDUIT     21.28     0  02:34      0.17    0.02    0.17
  HS02004478WS02006287 CONDUIT     66.18     0  02:32      0.78    0.02    0.09
  HS02004817HS02004807 CONDUIT     17.25     0  02:35      0.06    0.01    0.42
  HS02004807HS02004802 CONDUIT     21.24     0  02:32      0.19    0.04    0.21
  YS02001759YS02001757 CONDUIT     60.32     0  02:52      0.12    0.04    0.78
  YS02001762YS02001759 CONDUIT     48.02     0  04:44      0.17    0.06    0.71
  YS02001765YS02001762 CONDUIT     33.59     0  02:52      0.22    0.03    0.66
  YS02001770YS02001767 CONDUIT     33.47     0  02:53      0.27    0.13    0.60
  YS02001774YS02001770 CONDUIT     15.38     0  02:41      0.13    0.01    0.62
  YS02001779YS02001774 CONDUIT      7.59     0  05:05      0.03    0.00    0.54
  YS02001649YS02001757 CONDUIT     88.92     0  03:16      0.14    0.05    0.76
  YS02001767YS02001765 CONDUIT     46.44     0  04:58      0.26    0.06    0.62
  YS02006561YS02001783 CONDUIT     91.65     0  03:03      1.29    0.05    0.20
  YS02001783YS02001784 CONDUIT     91.64     0  03:04      0.83    0.13    0.27
  YS02001784YS02001785 CONDUIT     92.68     0  03:04      0.84    0.22    0.27
  YS02001788YS02001790 CONDUIT     92.80     0  03:05      1.34    0.07    0.20
  YS02001790YS02001791 CONDUIT     92.95     0  03:05      1.52    0.10    0.18
  YS02001791YS02001793 CONDUIT     92.95     0  03:05      3.01    0.04    0.12
  YS02001910YS02001907 CONDUIT     28.66     0  03:04      0.49    0.02    0.55
  YS02001786YS02001788 CONDUIT     92.73     0  03:04      1.18    0.18    0.21
  YS02001915YS02001910 CONDUIT     28.70     0  03:01      0.44    0.01    0.34
  YS02001918YS02001915 CONDUIT     10.77     0  03:06      0.44    0.01    0.14
  YS02001923YS02001920 CONDUIT      7.92     0  03:03      0.22    0.00    0.09
  YS02001926YS02001923 CONDUIT      7.88     0  03:03      0.29    0.01    0.08
  YS02001929YS02001926 CONDUIT      7.86     0  03:01      0.30    0.00    0.07
  YS02001920YS02001918 CONDUIT     10.78     0  03:05      0.27    0.01    0.10
  YS02001629YS02163301 CONDUIT     23.77     0  02:57      0.07    0.03    0.56
  YS02001619YS02001622 CONDUIT     19.09     0  02:57      0.46    0.03    0.18
  YS02001622YS02001625 CONDUIT     21.12     0  02:56      0.15    0.01    0.34
  YS02001625YS02001629 CONDUIT     20.63     0  03:07      0.12    0.01    0.33
  YS02163301YS02001633 CONDUIT     22.82     0  02:57      0.06    0.02    0.61
  YS02163601YS02164001 CONDUIT     42.07     0  03:15      0.08    0.04    0.66
  YS02164001YS02001641 CONDUIT     41.48     0  03:15      0.08    0.06    0.64
  YS02001641YS02001644 CONDUIT     40.06     0  03:15      0.09    0.13    0.66
  YS02001647YS02001649 CONDUIT     60.38     0  03:16      0.13    0.03    0.59
  YS02006553YS02006556 CONDUIT     62.91     0  03:04      0.18    0.05    0.63
  YS02006556YS02006558 CONDUIT     62.94     0  03:06      0.11    0.05    0.66
  YSB6556YSB1171       CONDUIT      3.71     0  02:31      0.03    0.00    0.45
  YS02001907YS02006553 CONDUIT     62.84     0  03:04      0.10    0.07    0.72
  YS02006558YS02006561 CONDUIT     91.66     0  03:03      1.64    0.20    0.25
  YS02001633YS02163601 CONDUIT     42.92     0  02:58      0.08    0.05    0.65
  YS02001644YS02001647 CONDUIT     59.87     0  03:05      0.14    0.04    0.57
  YS02001745YS02001748 CONDUIT     19.76     0  03:01      0.98    0.01    0.06
  YS02001748YS02001751 CONDUIT     19.80     0  03:01      0.80    0.01    0.14
  YS02001751YS02001754 CONDUIT     48.56     0  04:48      0.75    0.02    0.32
  YS02001754YS02001757 CONDUIT    103.15     0  05:00      0.33    0.04    0.66
  YS02001882YS02001884 CONDUIT      1.43     0  02:12      0.06    0.00    0.27
  YS02001884YS02001887 CONDUIT      4.54     0  02:11      0.04    0.01    0.36
  YS02001890YS02001895 CONDUIT     34.29     0  03:00      0.15    0.02    0.34
  YS02001895YS02001898 CONDUIT     34.28     0  03:01      0.36    0.06    0.20
  YS02001898YS02001901 CONDUIT     34.32     0  03:03      0.19    0.02    0.28
  YS02001901YS02001904 CONDUIT     34.25     0  03:02      0.19    0.05    0.33
  YS02001904YS02001907 CONDUIT     34.35     0  03:04      0.09    0.01    0.49
  YS02001887YS02001890 CONDUIT     34.44     0  02:59      0.11    0.06    0.42
  YS02001652YS02001649 CONDUIT     35.80     0  04:33      0.23    0.02    0.60
  YS02001655YS02001652 CONDUIT     30.20     0  02:56      0.81    0.01    0.35
  YS02001658YS02001655 CONDUIT     24.20     0  03:00      0.91    0.01    0.15
  YS02001661YS02001658 CONDUIT     24.20     0  03:00      1.00    0.01    0.07
  YS02001664YS02001661 CONDUIT     24.20     0  02:59      0.59    0.01    0.10
  YSB1154YSB6556       CONDUIT      3.71     0  02:26      0.19    0.01    0.34
  YSB1174YSB1171       CONDUIT      3.54     0  02:18      0.02    0.01    0.46
  YSB1171HS02004479    CONDUIT      6.81     0  02:33      0.54    0.00    0.34
  HS02004881HS02006253 CONDUIT     10.81     0  02:31      1.01    0.00    0.15
  YS02001793JiankangQianchi CONDUIT     93.33     0  02:58      9.13    0.01    0.53
  YS02001757CaochengTiaoxuchi CONDUIT    146.22     0  03:20      0.47    0.06    0.43
  WSF200WS02003060     CONDUIT    328.94     0  03:36      1.59    0.07    0.26
  1                    CONDUIT    596.71     0  04:08      2.88    0.21    0.31
  2                    CONDUIT      0.00     0  00:00      0.00    0.00    0.00
  3                    CONDUIT    444.59     0  00:20      9.54    0.71    0.63
  4                    CONDUIT      0.00     0  00:00      0.00    0.00    0.00
  CC-Pump-1            PUMP       199.99     0  03:30              1.00
  CC-Pump-2            PUMP       200.00     0  03:10              1.00
  JK-Pump-1            PUMP       300.00     0  03:20              1.00
  JK-Pump-2            PUMP       299.57     0  00:20              1.00
  XR-Pump-1            PUMP        95.00     0  01:00              1.00
  XR-Pump-2            PUMP        95.00     0  02:30              1.00
  XR-Pump-3            PUMP        95.00     0  00:00              1.00
  XR-Pump-4            PUMP        95.00     0  00:00              1.00
  
  
  ***************************
  Flow Classification Summary
  ***************************
  
  -------------------------------------------------------------------------------------
                      Adjusted    ---------- Fraction of Time in Flow Class ---------- 
                       /Actual         Up    Down  Sub   Sup   Up    Down  Norm  Inlet 
  Conduit               Length    Dry  Dry   Dry   Crit  Crit  Crit  Crit  Ltd   Ctrl  
  -------------------------------------------------------------------------------------
  WS02003066WSF200        1.00   0.09  0.00  0.00  0.00  0.91  0.00  0.00  0.75  0.00
  WS02006287WS02006284    1.00   0.05  0.02  0.00  0.79  0.13  0.00  0.00  0.81  0.00
  WS02006284WS02006280    1.00   0.06  0.00  0.00  0.00  0.00  0.00  0.94  0.00  0.00
  WS02006280WS02006229    1.00   0.06  0.00  0.00  0.00  0.00  0.00  0.94  0.00  0.00
  WS02006229WS02006228    1.00   0.00  0.00  0.00  1.00  0.00  0.00  0.00  0.00  0.00
  WS02006256WS02006235    1.00   0.01  0.00  0.00  0.99  0.00  0.00  0.00  0.00  0.00
  WS02006253WS02006251    1.00   0.04  0.02  0.00  0.94  0.00  0.01  0.00  0.00  0.00
  WS02006252WS02006251    1.00   0.15  0.00  0.00  0.00  0.00  0.85  0.00  0.00  0.00
  WS02006251WS02006249    1.00   0.00  0.00  0.00  1.00  0.00  0.00  0.00  0.45  0.00
  WS02006249WS02006248    1.00   0.00  0.00  0.00  0.77  0.00  0.22  0.00  0.00  0.00
  WS02006248WS02006247    1.00   0.01  0.00  0.00  0.96  0.00  0.00  0.03  0.35  0.00
  WS02006247WS02006245    1.00   0.01  0.00  0.00  0.96  0.00  0.00  0.04  0.00  0.00
  WS02006245WS02006243    1.00   0.01  0.00  0.00  0.90  0.00  0.00  0.09  0.06  0.00
  WS02006243WS02006242    1.00   0.01  0.01  0.00  0.98  0.00  0.00  0.00  0.38  0.00
  WS02006242WS02006240    1.00   0.01  0.00  0.00  0.99  0.00  0.00  0.00  0.00  0.00
  WS02006240WS02006239    1.00   0.01  0.00  0.00  0.92  0.00  0.00  0.07  0.01  0.00
  WS02006239WS02006238    1.00   0.01  0.00  0.00  0.99  0.00  0.00  0.00  0.03  0.00
  WS02006238WS02006235    1.00   0.01  0.00  0.00  0.99  0.00  0.00  0.00  0.00  0.00
  WS02006235WS02006234    1.00   0.01  0.00  0.00  0.92  0.00  0.07  0.00  0.00  0.00
  WS02006234WS02006232    1.00   0.01  0.00  0.00  0.99  0.00  0.00  0.00  0.08  0.00
  WS02006232WS02006231    1.00   0.01  0.00  0.00  0.99  0.00  0.01  0.00  0.00  0.00
  WS02006231WS02006230    1.00   0.01  0.00  0.00  0.06  0.00  0.94  0.00  0.00  0.00
  WS02006230WS02006229    1.00   0.00  0.00  0.00  0.98  0.00  0.00  0.02  0.00  0.00
  WS02006228WS02006109    1.00   0.00  0.00  0.00  1.00  0.00  0.00  0.00  0.00  0.00
  WS02006116WS02004401    1.00   0.04  0.00  0.00  0.96  0.00  0.00  0.00  0.00  0.00
  WS02006115WS02006116    1.00   0.04  0.00  0.00  0.95  0.00  0.00  0.01  0.00  0.00
  WS02006113WS02006111    1.00   0.03  0.00  0.00  0.00  0.97  0.00  0.00  0.17  0.00
  WS02006112WS02006115    1.00   0.03  0.01  0.00  0.96  0.00  0.00  0.00  0.00  0.00
  WS02006111WS02006112    1.00   0.03  0.00  0.00  0.96  0.00  0.00  0.01  0.96  0.00
  WS02006110WS02006113    1.00   0.00  0.02  0.00  0.97  0.00  0.00  0.00  0.00  0.00
  WS02006109WS02006110    1.00   0.00  0.00  0.00  0.99  0.00  0.00  0.00  0.00  0.00
  WS02004411WS02004412    1.00   0.06  0.00  0.00  0.94  0.00  0.00  0.00  0.00  0.00
  WS02004401WS02004402    1.00   0.04  0.00  0.00  0.96  0.00  0.00  0.00  0.00  0.00
  WS02004413WS02003067    1.00   0.06  0.02  0.00  0.00  0.00  0.92  0.00  0.00  0.00
  WS02004412WS02004413    1.00   0.06  0.00  0.00  0.94  0.00  0.00  0.00  0.03  0.00
  WS02004410WS02004411    1.00   0.06  0.00  0.00  0.94  0.00  0.00  0.00  0.04  0.00
  WS02004409WS02004410    1.00   0.06  0.00  0.00  0.94  0.00  0.00  0.00  0.04  0.00
  WS02004407WS02004409    1.00   0.06  0.00  0.00  0.94  0.00  0.00  0.00  0.87  0.00
  WS02004406WS02004407    1.00   0.00  0.06  0.00  0.94  0.00  0.00  0.00  0.00  0.00
  WS02004405WS02004406    1.00   0.00  0.00  0.00  1.00  0.00  0.00  0.00  0.03  0.00
  WS02004404WS02004405    1.00   0.00  0.00  0.00  1.00  0.00  0.00  0.00  0.00  0.00
  WS02004403WS02004404    1.00   0.00  0.04  0.00  0.96  0.00  0.00  0.00  0.01  0.00
  WS02004402WS02004403    1.00   0.04  0.00  0.00  0.96  0.00  0.00  0.00  0.00  0.00
  WS02004139WS02001211    1.00   0.00  0.00  0.00  1.00  0.00  0.00  0.00  0.00  0.00
  WS02004138WS02004139    1.00   0.00  0.00  0.00  1.00  0.00  0.00  0.00  1.00  0.00
  WS02003067WS02003066    1.00   0.08  0.01  0.00  0.91  0.00  0.00  0.00  0.00  0.00
  WS02001213WS02003059    1.00   0.00  0.00  0.00  1.00  0.00  0.00  0.00  0.00  0.00
  WS02001212WS02001213    1.00   0.00  0.00  0.00  0.30  0.00  0.69  0.00  0.00  0.00
  WS02001211WS02001212    1.00   0.00  0.00  0.00  1.00  0.00  0.00  0.00  0.00  0.00
  WS02003072WS02003073    1.00   0.00  0.00  0.00  0.00  0.00  0.00  1.00  0.00  0.00
  WS02003069WS02003072    1.00   0.00  0.00  0.00  1.00  0.00  0.00  0.00  0.67  0.00
  WS02003060WS02003069    1.00   0.00  0.00  0.00  0.99  0.01  0.00  0.00  0.35  0.00
  WS02003059WS02003060    1.00   0.00  0.00  0.00  1.00  0.00  0.00  0.00  0.01  0.00
  HS02004901HS02004770    1.00   0.06  0.00  0.00  0.94  0.00  0.00  0.00  0.03  0.00
  HS02004876HS02004881    1.00   0.01  0.00  0.00  0.99  0.00  0.00  0.00  0.00  0.00
  HS02004870HS02004876    1.00   0.00  0.00  0.00  0.99  0.01  0.00  0.00  0.95  0.00
  HS02004842HS02004848    1.00   0.00  0.06  0.00  0.94  0.00  0.00  0.00  0.73  0.00
  HS02004837HS02004842    1.00   0.00  0.00  0.00  1.00  0.00  0.00  0.00  0.11  0.00
  HS02004830HS02004837    1.00   0.00  0.00  0.00  1.00  0.00  0.00  0.00  0.99  0.00
  HS02004824HS02004830    1.00   0.00  0.00  0.00  1.00  0.00  0.00  0.00  0.00  0.00
  HS02004817HS02004824    1.00   0.00  0.00  0.00  1.00  0.00  0.00  0.00  1.00  0.00
  HS02004770HS02004777    1.00   0.00  0.06  0.00  0.94  0.00  0.00  0.00  0.08  0.00
  HS02004799HS02004480    1.00   0.00  0.02  0.00  0.92  0.00  0.06  0.00  0.00  0.00
  HS02004792HS02004799    1.00   0.00  0.00  0.00  1.00  0.00  0.00  0.00  0.98  0.00
  HS02004788HS02004792    1.00   0.00  0.00  0.00  1.00  0.00  0.00  0.00  0.98  0.00
  HS02004785HS02004788    1.00   0.00  0.00  0.00  1.00  0.00  0.00  0.00  0.00  0.00
  HS02004777HS02004785    1.00   0.00  0.00  0.00  1.00  0.00  0.00  0.00  0.23  0.00
  HS02004480HS02004478    1.00   0.07  0.00  0.00  0.80  0.00  0.00  0.14  0.00  0.00
  HS02004479HS02004480    1.00   0.03  0.00  0.00  0.97  0.00  0.00  0.00  0.17  0.00
  HS02004862HS02004870    1.00   0.00  0.00  0.00  1.00  0.00  0.00  0.00  0.05  0.00
  HS02004848HS02004852    1.00   0.06  0.00  0.00  0.94  0.00  0.00  0.00  0.68  0.00
  HS02004856HS02004862    1.00   0.00  0.10  0.00  0.90  0.00  0.00  0.00  0.72  0.00
  HS02004852HS02004856    1.00   0.06  0.01  0.00  0.93  0.00  0.00  0.00  0.81  0.00
  HS02004802HS02004478    1.00   0.06  0.01  0.00  0.93  0.00  0.00  0.00  0.00  0.00
  HS02004478WS02006287    1.00   0.08  0.00  0.00  0.92  0.00  0.00  0.00  0.81  0.00
  HS02004817HS02004807    1.00   0.00  0.06  0.00  0.94  0.00  0.00  0.00  0.00  0.00
  HS02004807HS02004802    1.00   0.06  0.00  0.00  0.94  0.00  0.00  0.00  0.01  0.00
  YS02001759YS02001757    1.00   0.00  0.00  0.00  1.00  0.00  0.00  0.00  0.17  0.00
  YS02001762YS02001759    1.00   0.00  0.00  0.00  1.00  0.00  0.00  0.00  0.06  0.00
  YS02001765YS02001762    1.00   0.00  0.00  0.00  1.00  0.00  0.00  0.00  0.24  0.00
  YS02001770YS02001767    1.00   0.00  0.00  0.00  1.00  0.00  0.00  0.00  0.00  0.00
  YS02001774YS02001770    1.00   0.00  0.08  0.00  0.92  0.00  0.00  0.00  0.07  0.00
  YS02001779YS02001774    1.00   0.00  0.00  0.00  1.00  0.00  0.00  0.00  0.29  0.00
  YS02001649YS02001757    1.00   0.00  0.00  0.00  1.00  0.00  0.00  0.00  0.20  0.00
  YS02001767YS02001765    1.00   0.00  0.00  0.00  1.00  0.00  0.00  0.00  0.01  0.00
  YS02006561YS02001783    1.00   0.10  0.00  0.00  0.00  0.90  0.00  0.00  0.71  0.00
  YS02001783YS02001784    1.00   0.00  0.10  0.00  0.90  0.00  0.00  0.00  0.33  0.00
  YS02001784YS02001785    1.00   0.00  0.00  0.00  1.00  0.00  0.00  0.00  0.27  0.00
  YS02001788YS02001790    1.00   0.00  0.00  0.00  0.11  0.89  0.00  0.00  0.99  0.00
  YS02001790YS02001791    1.00   0.00  0.00  0.00  0.00  1.00  0.00  0.00  0.13  0.00
  YS02001791YS02001793    1.00   0.00  0.00  0.00  0.00  1.00  0.00  0.00  0.00  0.00
  YS02001910YS02001907    1.00   0.00  0.00  0.00  0.99  0.00  0.00  0.01  0.13  0.00
  YS02001786YS02001788    1.00   0.00  0.00  0.00  0.36  0.64  0.00  0.00  0.00  0.00
  YS02001915YS02001910    1.00   0.00  0.00  0.00  1.00  0.00  0.00  0.00  0.26  0.00
  YS02001918YS02001915    1.00   0.00  0.00  0.00  0.99  0.00  0.00  0.00  0.79  0.00
  YS02001923YS02001920    1.00   0.00  0.00  0.00  1.00  0.00  0.00  0.00  1.00  0.00
  YS02001926YS02001923    1.00   0.00  0.05  0.00  0.00  0.00  0.95  0.00  0.00  0.00
  YS02001929YS02001926    1.00   0.00  0.06  0.00  0.94  0.00  0.00  0.00  0.86  0.00
  YS02001920YS02001918    1.00   0.00  0.00  0.00  1.00  0.00  0.00  0.00  0.00  0.00
  YS02001629YS02163301    1.00   0.09  0.01  0.00  0.91  0.00  0.00  0.00  0.00  0.00
  YS02001619YS02001622    1.00   0.06  0.00  0.00  0.94  0.00  0.00  0.00  0.00  0.00
  YS02001622YS02001625    1.00   0.06  0.00  0.00  0.94  0.00  0.00  0.00  0.16  0.00
  YS02001625YS02001629    1.00   0.06  0.04  0.00  0.85  0.00  0.04  0.00  0.00  0.00
  YS02163301YS02001633    1.00   0.00  0.09  0.00  0.91  0.00  0.00  0.00  0.00  0.00
  YS02163601YS02164001    1.00   0.00  0.05  0.00  0.95  0.00  0.00  0.00  0.00  0.00
  YS02164001YS02001641    1.00   0.00  0.05  0.00  0.95  0.00  0.00  0.00  0.07  0.00
  YS02001641YS02001644    1.00   0.00  0.00  0.00  1.00  0.00  0.00  0.00  0.00  0.00
  YS02001647YS02001649    1.00   0.00  0.10  0.00  0.90  0.00  0.00  0.00  0.01  0.00
  YS02006553YS02006556    1.00   0.00  0.00  0.00  1.00  0.00  0.00  0.00  0.03  0.00
  YS02006556YS02006558    1.00   0.00  0.00  0.00  1.00  0.00  0.00  0.00  0.00  0.00
  YSB6556YSB1171          1.00   0.03  0.03  0.00  0.94  0.00  0.00  0.00  0.00  0.00
  YS02001907YS02006553    1.00   0.00  0.01  0.00  0.99  0.00  0.00  0.00  0.00  0.00
  YS02006558YS02006561    1.00   0.10  0.00  0.00  0.00  0.90  0.00  0.00  0.69  0.00
  YS02001633YS02163601    1.00   0.00  0.00  0.00  1.00  0.00  0.00  0.00  0.20  0.00
  YS02001644YS02001647    1.00   0.00  0.10  0.00  0.90  0.00  0.00  0.00  0.00  0.00
  YS02001745YS02001748    1.00   0.00  0.00  0.00  0.00  0.00  0.00  1.00  0.00  0.00
  YS02001748YS02001751    1.00   0.00  0.00  0.00  0.95  0.05  0.00  0.00  0.89  0.00
  YS02001751YS02001754    1.00   0.00  0.00  0.00  0.89  0.00  0.00  0.11  0.04  0.00
  YS02001754YS02001757    1.00   0.00  0.00  0.00  1.00  0.00  0.00  0.00  0.29  0.00
  YS02001882YS02001884    1.00   0.08  0.01  0.00  0.91  0.00  0.00  0.00  0.00  0.00
  YS02001884YS02001887    1.00   0.04  0.01  0.00  0.94  0.00  0.00  0.00  0.00  0.00
  YS02001890YS02001895    1.00   0.00  0.09  0.00  0.91  0.00  0.00  0.00  0.00  0.00
  YS02001895YS02001898    1.00   0.09  0.00  0.00  0.89  0.00  0.01  0.00  0.00  0.00
  YS02001898YS02001901    1.00   0.09  0.01  0.00  0.90  0.00  0.00  0.00  0.02  0.00
  YS02001901YS02001904    1.00   0.09  0.00  0.00  0.91  0.00  0.00  0.00  0.00  0.00
  YS02001904YS02001907    1.00   0.00  0.09  0.00  0.91  0.00  0.00  0.00  0.00  0.00
  YS02001887YS02001890    1.00   0.00  0.00  0.00  0.99  0.00  0.01  0.00  0.00  0.00
  YS02001652YS02001649    1.00   0.00  0.00  0.00  1.00  0.00  0.00  0.00  0.28  0.00
  YS02001655YS02001652    1.00   0.00  0.00  0.00  0.89  0.00  0.00  0.11  0.04  0.00
  YS02001658YS02001655    1.00   0.00  0.08  0.00  0.87  0.05  0.00  0.00  0.79  0.00
  YS02001661YS02001658    1.00   0.08  0.00  0.00  0.00  0.92  0.00  0.00  0.73  0.00
  YS02001664YS02001661    1.00   0.06  0.00  0.00  0.94  0.00  0.00  0.00  0.86  0.00
  YSB1154YSB6556          1.00   0.06  0.00  0.00  0.94  0.00  0.00  0.00  0.02  0.00
  YSB1174YSB1171          1.00   0.04  0.01  0.00  0.95  0.00  0.00  0.00  0.00  0.00
  YSB1171HS02004479       1.00   0.03  0.00  0.00  0.96  0.00  0.00  0.01  0.13  0.00
  HS02004881HS02006253    1.00   0.04  0.00  0.00  0.38  0.03  0.00  0.55  0.22  0.00
  YS02001793JiankangQianchi    1.00   0.00  0.00  0.00  0.19  0.81  0.00  0.00  0.22  0.00
  YS02001757CaochengTiaoxuchi    1.00   0.00  0.15  0.00  0.85  0.00  0.00  0.00  0.00  0.00
  WSF200WS02003060        1.00   0.00  0.09  0.00  0.64  0.27  0.00  0.00  0.48  0.00
  1                       1.00   0.00  0.00  0.00  0.00  1.00  0.00  0.00  0.39  0.00
  2                       1.00   1.00  0.00  0.00  0.00  0.00  0.00  0.00  0.00  0.00
  3                       1.00   0.80  0.00  0.00  0.00  0.20  0.00  0.00  0.52  0.00
  4                       1.00   1.00  0.00  0.00  0.00  0.00  0.00  0.00  0.00  0.00
  
  
  *************************
  Conduit Surcharge Summary
  *************************
  
  ----------------------------------------------------------------------------
                                                           Hours        Hours 
                         --------- Hours Full --------   Above Full   Capacity
  Conduit                Both Ends  Upstream  Dnstream   Normal Flow   Limited
  ----------------------------------------------------------------------------
  WS02006229WS02006228        0.01      0.01      0.01      0.61         0.01
  WS02006256WS02006235        4.67      4.67      7.11      1.10         0.01
  WS02006252WS02006251        0.01      0.01      0.12      0.03         0.01
  WS02006249WS02006248        0.01      0.01      0.01      0.85         0.01
  WS02006247WS02006245        0.01      0.01      0.01      2.03         0.01
  WS02006242WS02006240        0.01      0.01      0.01      0.05         0.01
  WS02006235WS02006234        0.01      0.01      0.01      4.62         0.01
  WS02006231WS02006230        0.01      0.01      0.01      4.86         0.01
  WS02006230WS02006229        0.01      0.44      0.01      5.40         0.01
  WS02006228WS02006109        0.01      0.01      0.01      1.48         0.01
  WS02006111WS02006112        0.01      0.01      0.64      0.01         0.01
  WS02004404WS02004405        0.01      0.01      0.01      4.96         0.01
  WS02003072WS02003073        0.01      0.01      0.01      0.71         0.01
  YS02001793JiankangQianchi        0.01      0.01      0.41      0.01         0.01
  
  
  ***************
  Pumping Summary
  ***************
  
  ---------------------------------------------------------------------------------------------------------
                                                  Min       Avg       Max     Total     Power    % Time Off
                        Percent   Number of      Flow      Flow      Flow    Volume     Usage    Pump Curve
  Pump                 Utilized   Start-Ups       LPS       LPS       LPS  10^6 ltr     Kw-hr    Low   High
  ---------------------------------------------------------------------------------------------------------
  CC-Pump-1               38.81           4      0.00     76.78    199.99     0.782      3.29    0.0  100.0
  CC-Pump-2               46.79           4      0.00     91.86    200.00     1.125      4.73    0.0  100.0
  JK-Pump-1               65.95           9      0.00     65.33    300.00     0.903     16.63    0.0    0.0
  JK-Pump-2               63.82           8      0.00     54.48    299.57     0.636     11.74    0.0    0.0
  XR-Pump-1               53.18           8      0.00     60.12     95.00     0.883      4.85    0.0    0.0
  XR-Pump-2               59.56           8      0.00     56.21     95.00     0.940      5.01    0.0    0.0
  XR-Pump-3               65.95           8      0.00     63.95     95.00     1.169      6.42    0.0    0.0
  XR-Pump-4               70.21           7      0.00     54.54     95.00     1.226      7.70    0.0    0.0
  

  Analysis begun on:  Thu Jan  6 00:14:36 2022
  Analysis ended on:  Thu Jan  6 00:14:38 2022
  Total elapsed time: 00:00:02