
  EPA STORM WATER MANAGEMENT MODEL - VERSION 5.1 (Build 5.3.0.dev0)
  --------------------------------------------------------------

  WARNING 04: minimum elevation drop used for Conduit WS02004404WS02004405
  WARNING 03: negative offset ignored for Link YS02001904YS02001907
  
  *********************************************************
  NOTE: The summary statistics displayed in this report are
  based on results found at every computational time step,  
  not just on results from each reporting time step.
  *********************************************************
  
  ****************
  Analysis Options
  ****************
  Flow Units ............... LPS
  Process Models:
    Rainfall/Runoff ........ YES
    RDII ................... NO
    Snowmelt ............... NO
    Groundwater ............ NO
    Flow Routing ........... YES
    Ponding Allowed ........ NO
    Water Quality .......... NO
  Infiltration Method ...... HORTON
  Flow Routing Method ...... DYNWAVE
  Surcharge Method ......... EXTRAN
  Starting Date ............ 08/28/2015 08:00:00
  Ending Date .............. 08/28/2015 15:50:00
  Antecedent Dry Days ...... 8.0
  Report Time Step ......... 00:01:00
  Wet Time Step ............ 00:01:00
  Dry Time Step ............ 00:01:00
  Routing Time Step ........ 5.00 sec
  Variable Time Step ....... YES
  Maximum Trials ........... 8
  Number of Threads ........ 4
  Head Tolerance ........... 0.001500 m
  
  
  **************************        Volume         Depth
  Runoff Quantity Continuity     hectare-m            mm
  **************************     ---------       -------
  Total Precipitation ......         5.556        12.164
  Evaporation Loss .........         0.000         0.000
  Infiltration Loss ........         1.427         3.124
  Surface Runoff ...........         3.072         6.726
  Final Storage ............         1.058         2.316
  Continuity Error (%) .....        -0.016
  
  
  **************************        Volume        Volume
  Flow Routing Continuity        hectare-m      10^6 ltr
  **************************     ---------     ---------
  Dry Weather Inflow .......         0.616         6.165
  Wet Weather Inflow .......         3.071        30.709
  Groundwater Inflow .......         0.000         0.000
  RDII Inflow ..............         0.000         0.000
  External Inflow ..........         0.102         1.024
  External Outflow .........         1.384        13.836
  Flooding Loss ............         1.858        18.575
  Evaporation Loss .........         0.000         0.000
  Exfiltration Loss ........         0.000         0.000
  Initial Stored Volume ....         0.076         0.761
  Final Stored Volume ......         0.630         6.298
  Continuity Error (%) .....        -0.133
  
  
  *************************
  Highest Continuity Errors
  *************************
  Node HS02004842 (16.24%)
  Node YS02001884 (11.59%)
  Node YSB1171 (3.12%)
  Node HS02004817 (2.99%)
  Node HS02004901 (2.32%)
  
  
  ***************************
  Time-Step Critical Elements
  ***************************
  Link WS02006252WS02006251 (47.16%)
  Link 3 (42.84%)
  Link WS02006280WS02006229 (2.01%)
  Link YS02001793JiankangQianchi (1.89%)
  Link WS02006238WS02006235 (1.33%)
  
  
  ********************************
  Highest Flow Instability Indexes
  ********************************
  Link WS02006113WS02006111 (48)
  Link YS02163301YS02001633 (47)
  Link YS02163601YS02164001 (46)
  Link YS02001629YS02163301 (46)
  Link YS02001619YS02001622 (46)
  
  
  *************************
  Routing Time Step Summary
  *************************
  Minimum Time Step           :     0.50 sec
  Average Time Step           :     0.95 sec
  Maximum Time Step           :     5.00 sec
  Percent in Steady State     :    -0.00
  Average Iterations per Step :     4.73
  Percent Not Converging      :    21.43
  
  
  ***************************
  Subcatchment Runoff Summary
  ***************************
  
  ------------------------------------------------------------------------------------------------------------------------------
                            Total      Total      Total      Total     Imperv       Perv      Total       Total     Peak  Runoff
                           Precip      Runon       Evap      Infil     Runoff     Runoff     Runoff      Runoff   Runoff   Coeff
  Subcatchment                 mm         mm         mm         mm         mm         mm         mm    10^6 ltr      LPS
  ------------------------------------------------------------------------------------------------------------------------------
  sub0                      12.16       0.00       0.00       0.85      10.05       0.00      10.05        0.01     1.91   0.826
  sub1                      12.16       0.00       0.00       1.34       9.56       0.00       9.56        0.06    14.15   0.786
  sub2                      12.16       0.00       0.00       4.50       6.75       0.00       6.75        0.06    13.75   0.555
  sub3                      12.16       0.00       0.00       4.50       6.71       0.00       6.71        0.15    32.07   0.552
  sub4                      12.16       0.00       0.00       1.34       9.40       0.00       9.40        0.20    40.20   0.773
  sub5                      12.16       0.00       0.00       0.85       9.99       0.00       9.99        0.11    25.19   0.822
  sub7                      12.16       0.00       0.00       1.09       9.81       0.00       9.81        0.03     7.55   0.807
  sub8                      12.16       0.00       0.00       1.09       9.80       0.00       9.80        0.06    14.17   0.806
  sub9                      12.16       0.00       0.00       1.09       9.80       0.00       9.80        0.05    10.64   0.806
  sub10                     12.16       0.00       0.00       0.97       9.89       0.00       9.89        0.11    24.40   0.813
  sub11                     12.16       0.00       0.00       0.97       9.91       0.00       9.91        0.12    26.15   0.815
  sub12                     12.16       0.00       0.00       1.58       9.39       0.00       9.39        0.08    19.06   0.772
  sub14                     12.16       0.00       0.00       1.09       9.80       0.00       9.80        0.09    21.02   0.805
  sub15                     12.16       0.00       0.00       3.65       7.53       0.00       7.53        0.13    29.11   0.619
  sub16                     12.16       0.00       0.00       4.01       7.23       0.00       7.23        0.08    17.47   0.594
  sub17                     12.16       0.00       0.00       3.89       7.34       0.00       7.34        0.06    14.47   0.603
  sub22                     12.16       0.00       0.00       5.23       6.14       0.00       6.14        0.39    88.27   0.505
  sub23                     12.16       0.00       0.00       4.50       6.79       0.00       6.79        0.32    73.89   0.558
  sub60                     12.16       0.00       0.00       1.46       7.71       0.00       7.71        2.34   297.17   0.634
  sub61                     12.16       0.00       0.00       2.07       7.87       0.00       7.87        2.43   359.80   0.647
  sub62                     12.16       0.00       0.00       0.97       8.55       0.00       8.55        2.63   372.87   0.703
  sub63                     12.16       0.00       0.00       3.53       6.89       0.00       6.89        2.09   327.80   0.567
  sub64                     12.16       0.00       0.00       1.82       7.40       0.00       7.40        2.25   282.66   0.608
  sub65                     12.16       0.00       0.00       1.58       7.52       0.00       7.52        2.31   287.20   0.618
  sub66                     12.16       0.00       0.00       3.53       6.36       0.00       6.36        1.95   257.27   0.523
  sub67                     12.16       0.00       0.00       0.97       9.05       0.00       9.05        2.79   452.90   0.744
  sub68                     12.16       0.00       0.00       1.70       8.28       0.00       8.28        2.55   391.99   0.681
  sub69                     12.16       0.00       0.00       1.82       8.61       0.00       8.61        2.01   355.79   0.708
  sub70                     12.16       8.79       0.00       7.03      11.43       0.10      11.53        2.64   335.00   0.550
  sub71                     12.16       0.00       0.00       0.97       8.31       0.00       8.31        1.96   263.63   0.683
  sub72                     12.16       0.00       0.00       0.85       6.56       0.00       6.56        1.34   129.40   0.540
  sub73                     12.16      11.23       0.00       7.88      12.47       0.08      12.54        2.95   300.52   0.536
  sub74                     12.16       0.00       0.00       9.12       2.57       0.00       2.57        1.03   189.59   0.211
  
  
  ******************
  Node Depth Summary
  ******************
  
  ---------------------------------------------------------------------------------
                                 Average  Maximum  Maximum  Time of Max    Reported
                                   Depth    Depth      HGL   Occurrence   Max Depth
  Node                 Type       Meters   Meters   Meters  days hr:min      Meters
  ---------------------------------------------------------------------------------
  WS02001211           JUNCTION     0.55     0.64     5.48     0  03:11        0.64
  WS02001212           JUNCTION     0.30     0.39     5.45     0  03:11        0.39
  WS02001213           JUNCTION     0.54     0.66     5.42     0  03:11        0.66
  WS02003069           JUNCTION     0.38     0.53     5.11     0  02:45        0.53
  WS02003072           JUNCTION     0.45     0.59     4.96     0  02:45        0.59
  WS02003073           JUNCTION     0.27     0.36     4.43     0  02:46        0.36
  WS02003060           JUNCTION     0.34     0.47     5.40     0  02:45        0.47
  WS02003066           JUNCTION     0.23     0.32     5.87     0  03:00        0.32
  WS02003059           JUNCTION     0.61     0.73     5.41     0  02:44        0.73
  WS02003067           JUNCTION     0.57     0.73     6.05     0  03:00        0.73
  WS02004401           JUNCTION     0.66     0.93     6.93     0  02:58        0.93
  WS02004402           JUNCTION     0.69     0.96     6.92     0  02:58        0.96
  WS02004403           JUNCTION     0.71     0.96     6.89     0  02:58        0.96
  WS02004404           JUNCTION     0.79     1.03     6.88     0  02:58        1.03
  WS02004406           JUNCTION     0.79     1.01     6.84     0  02:58        1.01
  WS02004409           JUNCTION     0.48     0.73     6.50     0  02:58        0.73
  WS02004410           JUNCTION     0.50     0.74     6.46     0  02:59        0.74
  WS02004411           JUNCTION     0.52     0.75     6.43     0  03:00        0.75
  WS02004412           JUNCTION     0.53     0.75     6.39     0  02:59        0.75
  WS02004413           JUNCTION     0.69     0.90     6.37     0  02:59        0.90
  WS02004405           JUNCTION     0.79     1.02     6.87     0  02:58        1.02
  WS02006109           JUNCTION     0.75     1.06     7.68     0  02:57        1.06
  WS02006110           JUNCTION     0.74     0.99     7.57     0  02:53        0.98
  WS02006111           JUNCTION     0.21     0.31     7.02     0  02:57        0.31
  WS02006112           JUNCTION     0.83     1.18     7.07     0  02:37        1.17
  WS02006113           JUNCTION     0.33     0.49     7.39     0  02:56        0.49
  WS02006115           JUNCTION     0.56     0.84     6.98     0  02:57        0.84
  WS02006116           JUNCTION     0.64     0.92     6.96     0  02:58        0.92
  WS02006230           JUNCTION     0.70     1.11     7.85     0  02:55        1.11
  WS02006231           JUNCTION     0.46     0.76     7.88     0  02:52        0.76
  WS02006232           JUNCTION     0.59     0.87     7.91     0  02:41        0.87
  WS02006234           JUNCTION     0.50     0.79     7.95     0  02:40        0.79
  WS02006235           JUNCTION     0.53     0.81     7.98     0  02:40        0.81
  WS02006238           JUNCTION     0.55     0.84     7.98     0  02:40        0.84
  WS02006240           JUNCTION     0.43     0.74     8.03     0  02:40        0.74
  WS02006242           JUNCTION     0.47     0.79     8.06     0  02:41        0.79
  WS02006243           JUNCTION     0.34     0.67     8.09     0  02:42        0.67
  WS02006245           JUNCTION     0.32     0.62     8.11     0  02:42        0.62
  WS02006247           JUNCTION     0.34     0.62     8.12     0  02:42        0.62
  WS02006248           JUNCTION     0.28     0.55     8.14     0  02:43        0.55
  WS02006249           JUNCTION     0.32     0.56     8.16     0  02:43        0.56
  WS02006239           JUNCTION     0.50     0.80     8.01     0  02:40        0.80
  WS02006251           JUNCTION     0.30     0.53     8.20     0  02:46        0.53
  WS02006252           JUNCTION     0.25     0.35     8.59     0  05:20        0.35
  WS02006253           JUNCTION     0.33     0.56     8.20     0  02:46        0.56
  WS02006256           JUNCTION     1.04     1.13     8.07     0  02:40        1.13
  WS02004138           JUNCTION     0.11     0.14     7.39     0  01:00        0.14
  WS02004407           JUNCTION     0.22     0.32     6.63     0  02:58        0.32
  WS02006228           JUNCTION     0.74     1.12     7.77     0  02:56        1.12
  WS02006229           JUNCTION     0.72     1.12     7.82     0  02:55        1.12
  WS02006280           JUNCTION     0.07     0.19     8.46     0  03:02        0.19
  WS02006284           JUNCTION     0.38     0.55     8.95     0  03:02        0.55
  WS02006287           JUNCTION     0.11     0.28     9.24     0  03:01        0.28
  WSF200               JUNCTION     0.22     0.33     5.56     0  02:46        0.33
  HS02004901           JUNCTION     0.13     0.28    10.10     0  03:01        0.28
  HS02004881           JUNCTION     0.01     0.04     9.07     0  03:01        0.04
  HS02004876           JUNCTION     0.05     0.12     9.15     0  03:01        0.12
  HS02004870           JUNCTION     0.02     0.06     9.35     0  03:01        0.06
  HS02004862           JUNCTION     0.02     0.07     9.46     0  03:01        0.07
  HS02004856           JUNCTION     0.08     0.13     9.55     0  03:01        0.13
  HS02004852           JUNCTION     0.01     0.05     9.56     0  03:01        0.05
  HS02004848           JUNCTION     0.01     0.05     9.65     0  03:01        0.05
  HS02004842           JUNCTION     0.33     0.38     9.65     0  03:01        0.38
  HS02004837           JUNCTION     0.03     0.07     9.65     0  03:01        0.07
  HS02004830           JUNCTION     0.04     0.08     9.55     0  03:01        0.08
  HS02004824           JUNCTION     0.03     0.06     9.46     0  03:01        0.06
  HS02004817           JUNCTION     0.45     0.60     9.44     0  03:01        0.60
  HS02004807           JUNCTION     0.13     0.27     9.44     0  03:01        0.27
  HS02004802           JUNCTION     0.17     0.30     9.43     0  03:01        0.30
  HS02004799           JUNCTION     0.13     0.33     9.54     0  03:01        0.33
  HS02004792           JUNCTION     0.04     0.14     9.66     0  03:01        0.14
  HS02004788           JUNCTION     0.03     0.10    10.00     0  03:01        0.10
  HS02004785           JUNCTION     0.05     0.17    10.07     0  03:01        0.17
  HS02004777           JUNCTION     0.15     0.30    10.10     0  03:01        0.30
  HS02004770           JUNCTION     0.13     0.27    10.10     0  03:01        0.27
  HS02004480           JUNCTION     0.09     0.26     9.50     0  03:01        0.26
  HS02004479           JUNCTION     0.13     0.30     9.50     0  03:01        0.30
  HS02004478           JUNCTION     0.07     0.18     9.41     0  03:01        0.18
  YS02001745           JUNCTION     0.69     0.88     8.40     0  03:32        0.88
  YS02001748           JUNCTION     1.08     2.27     9.35     0  02:39        1.32
  YS02001751           JUNCTION     1.26     2.20     9.08     0  02:41        1.53
  YS02001754           JUNCTION     1.51     2.20     8.81     0  02:40        1.81
  YS02001762           JUNCTION     1.71     2.09     8.49     0  02:40        2.02
  YS02001765           JUNCTION     1.66     2.02     8.47     0  02:40        1.97
  YS02001767           JUNCTION     1.62     1.98     8.47     0  02:40        1.92
  YS02001770           JUNCTION     1.62     1.95     8.44     0  02:40        1.91
  YS02001774           JUNCTION     1.69     2.01     8.43     0  02:40        1.97
  YS02001779           JUNCTION     1.44     1.68     8.37     0  02:37        1.68
  YS02001882           JUNCTION     0.54     1.61     8.32     0  03:00        1.60
  YS02001884           JUNCTION     0.64     1.71     8.33     0  03:00        1.70
  YS02001759           JUNCTION     1.74     2.11     8.47     0  02:40        2.06
  YS02001887           JUNCTION     0.71     1.78     8.32     0  02:59        1.78
  YS02001890           JUNCTION     0.74     1.81     8.31     0  02:59        1.80
  YS02001898           JUNCTION     0.51     1.55     8.29     0  03:00        1.55
  YS02001901           JUNCTION     0.63     1.67     8.28     0  02:59        1.66
  YS02001904           JUNCTION     0.61     1.63     8.26     0  02:59        1.63
  YS02001907           JUNCTION     0.93     1.96     8.25     0  02:52        1.96
  YS02001910           JUNCTION     0.73     1.78     8.29     0  02:54        1.77
  YS02001915           JUNCTION     0.53     1.59     8.30     0  02:54        1.57
  YS02001918           JUNCTION     0.27     1.27     8.33     0  02:53        1.25
  YS02001619           JUNCTION     1.22     1.61     8.54     0  02:36        1.47
  YS02001629           JUNCTION     1.57     1.85     8.40     0  02:37        1.85
  YS02001641           JUNCTION     1.67     1.99     8.42     0  02:41        1.93
  YS02001644           JUNCTION     1.67     1.92     8.35     0  02:37        1.92
  YS02001652           JUNCTION     1.52     2.16     8.76     0  03:06        1.94
  YS02001655           JUNCTION     1.29     2.20     9.05     0  02:33        1.78
  YS02001920           JUNCTION     0.37     1.34     8.35     0  02:53        1.32
  YS02001923           JUNCTION     0.21     1.10     8.36     0  02:53        1.08
  YS02001926           JUNCTION     0.26     0.91     8.36     0  02:53        0.89
  YS02001929           JUNCTION     0.15     0.69     8.39     0  02:53        0.67
  YS02001658           JUNCTION     1.02     2.30     9.44     0  02:36        1.60
  YS02001661           JUNCTION     0.80     2.42     9.82     0  03:05        1.40
  YS02001664           JUNCTION     0.35     0.57     8.50     0  02:52        0.56
  YS02001622           JUNCTION     1.24     1.62     8.52     0  02:36        1.49
  YS02001633           JUNCTION     1.66     2.01     8.47     0  02:41        1.96
  YS02001649           JUNCTION     1.71     2.05     8.44     0  02:37        2.05
  YS02001757           JUNCTION     1.84     2.21     8.47     0  02:40        2.17
  YS02001895           JUNCTION     0.51     1.55     8.30     0  03:00        1.55
  YS02001625           JUNCTION     1.53     1.78     8.38     0  02:37        1.78
  YS02163301           JUNCTION     1.60     1.93     8.44     0  02:41        1.89
  YS02163601           JUNCTION     1.71     2.07     8.47     0  02:41        2.00
  YS02164001           JUNCTION     1.65     2.00     8.46     0  02:41        1.93
  YS02001647           JUNCTION     1.50     1.84     8.45     0  02:37        1.79
  YSB1154              JUNCTION     0.27     0.45     9.51     0  03:01        0.45
  YSB6556              JUNCTION     0.16     0.34     9.51     0  03:01        0.34
  YSB1174              JUNCTION     0.22     0.40     9.51     0  03:01        0.40
  YSB1171              JUNCTION     0.42     0.60     9.51     0  03:01        0.60
  YS02006553           JUNCTION     0.94     1.96     8.25     0  03:03        1.96
  YS02006561           JUNCTION     0.31     1.08     7.74     0  02:57        1.07
  YS02006556           JUNCTION     0.90     1.92     8.23     0  02:58        1.91
  YS02006558           JUNCTION     0.95     1.96     8.23     0  03:00        1.95
  YS02001783           JUNCTION     0.57     1.86     8.00     0  02:37        1.46
  YS02001784           JUNCTION     0.59     1.78     7.85     0  02:37        1.41
  YS02001786           JUNCTION     0.55     1.91     7.94     0  02:37        1.25
  YS02001788           JUNCTION     0.51     2.28     8.26     0  02:37        1.12
  YS02001790           JUNCTION     0.68     1.96     7.60     0  02:36        1.29
  YS02001791           JUNCTION     0.70     1.70     7.17     0  02:37        1.27
  YS02001793           JUNCTION     1.03     2.41     7.24     0  02:34        1.80
  WS02004139           JUNCTION     0.49     0.58     5.49     0  03:10        0.58
  WSC                  OUTFALL      0.27     0.36     1.03     0  02:47        0.36
  3                    OUTFALL      0.08     0.13     6.13     0  02:40        0.13
  4                    OUTFALL      0.00     0.06     7.06     0  02:43        0.06
  5                    OUTFALL      0.00     0.00     5.00     0  00:00        0.00
  JK-storage           STORAGE      3.78     5.80     6.60     0  02:37        5.80
  CC-storage           STORAGE      1.07     1.39     8.39     0  03:31        1.39
  XR-storage           STORAGE      7.66     7.72     5.72     0  00:52        7.72
  
  
  *******************
  Node Inflow Summary
  *******************
  
  -------------------------------------------------------------------------------------------------
                                  Maximum  Maximum                  Lateral       Total        Flow
                                  Lateral    Total  Time of Max      Inflow      Inflow     Balance
                                   Inflow   Inflow   Occurrence      Volume      Volume       Error
  Node                 Type           LPS      LPS  days hr:min    10^6 ltr    10^6 ltr     Percent
  -------------------------------------------------------------------------------------------------
  WS02001211           JUNCTION      7.35   198.31     0  06:50       0.207        3.61       0.673
  WS02001212           JUNCTION      0.00   199.14     0  06:50           0        3.59       0.266
  WS02001213           JUNCTION      0.00   200.00     0  06:50           0        3.58       0.486
  WS02003069           JUNCTION      0.32   797.04     0  02:45     0.00902        11.2       0.162
  WS02003072           JUNCTION      0.00   796.82     0  02:45           0        11.2       0.218
  WS02003073           JUNCTION      1.82   798.83     0  02:46      0.0514        11.2       0.235
  WS02003060           JUNCTION     16.53   797.15     0  02:45       0.466        11.2       0.154
  WS02003066           JUNCTION      0.00   630.62     0  03:00           0        7.19       0.045
  WS02003059           JUNCTION      0.00   202.12     0  06:51           0        3.56       0.831
  WS02003067           JUNCTION      0.00   630.45     0  03:00           0         7.2       0.102
  WS02004401           JUNCTION      0.00   633.52     0  02:57           0        7.37       0.220
  WS02004402           JUNCTION      0.00   632.91     0  02:59           0        7.36       0.213
  WS02004403           JUNCTION      0.00   632.22     0  02:59           0        7.34       0.199
  WS02004404           JUNCTION      0.16   631.93     0  02:58     0.00457        7.33       0.156
  WS02004406           JUNCTION      0.00   632.05     0  02:58           0        7.31       0.383
  WS02004409           JUNCTION      0.00   631.94     0  02:58           0        7.27       0.145
  WS02004410           JUNCTION      0.00   631.49     0  02:58           0        7.26       0.173
  WS02004411           JUNCTION      0.00   631.04     0  02:59           0        7.25       0.186
  WS02004412           JUNCTION      0.00   630.86     0  02:59           0        7.24       0.211
  WS02004413           JUNCTION      0.00   630.59     0  02:59           0        7.22       0.329
  WS02004405           JUNCTION      0.04   632.00     0  02:58     0.00107        7.32       0.234
  WS02006109           JUNCTION      1.23   618.28     0  02:55      0.0347         7.4       0.183
  WS02006110           JUNCTION      0.00   618.30     0  02:55           0        7.38       0.207
  WS02006111           JUNCTION      0.00   649.11     0  02:56           0        7.36       0.035
  WS02006112           JUNCTION     14.47   641.75     0  02:57      0.0629        7.42       0.322
  WS02006113           JUNCTION      0.00   619.00     0  02:56           0        7.37       0.075
  WS02006115           JUNCTION      0.00   640.47     0  02:57           0         7.4       0.190
  WS02006116           JUNCTION      0.00   635.68     0  02:57           0        7.39       0.167
  WS02006230           JUNCTION     10.28   337.90     0  03:22        0.29         5.5       0.157
  WS02006231           JUNCTION      0.00   325.89     0  03:21           0        5.22       0.115
  WS02006232           JUNCTION      0.00   325.75     0  03:21           0        5.23       0.210
  WS02006234           JUNCTION      0.00   324.72     0  03:20           0        5.23       0.059
  WS02006235           JUNCTION      0.00   324.13     0  03:21           0        5.27       0.136
  WS02006238           JUNCTION      0.00   257.60     0  02:50           0        2.91       0.139
  WS02006240           JUNCTION      0.00   255.79     0  02:50           0        2.89       0.133
  WS02006242           JUNCTION      0.00   256.07     0  02:50           0        2.89       0.150
  WS02006243           JUNCTION      0.00   253.99     0  02:50           0        2.87      -0.438
  WS02006245           JUNCTION      0.00   252.49     0  02:50           0        2.87       0.138
  WS02006247           JUNCTION      0.00   249.80     0  02:51           0        2.87       0.012
  WS02006248           JUNCTION      0.00   250.96     0  02:32           0        2.87      -0.127
  WS02006249           JUNCTION      0.00   272.43     0  02:50           0         2.9       0.196
  WS02006239           JUNCTION      0.00   258.00     0  02:50           0         2.9       0.164
  WS02006251           JUNCTION      0.08   272.01     0  02:50     0.00217        2.91      -0.017
  WS02006252           JUNCTION      0.00   200.00     0  02:30           0        2.53       0.004
  WS02006253           JUNCTION      1.91    80.98     0  03:01     0.00814       0.377      -0.010
  WS02006256           JUNCTION      0.00   300.00     0  00:20           0        5.04       0.042
  WS02004138           JUNCTION      0.00   190.00     0  01:00           0        3.42       0.068
  WS02004407           JUNCTION      0.00   632.16     0  02:58           0        7.28       0.064
  WS02006228           JUNCTION      0.00   617.12     0  02:55           0        7.37       0.134
  WS02006229           JUNCTION      0.00   616.68     0  02:55           0        7.38       0.128
  WS02006280           JUNCTION      0.00   375.54     0  03:02           0        1.89       0.004
  WS02006284           JUNCTION      0.10   375.54     0  03:02      0.0027        1.89       0.064
  WS02006287           JUNCTION      0.00   375.27     0  03:01           0        1.89       0.038
  WSF200               JUNCTION      0.00   630.69     0  03:00           0        7.19       0.038
  HS02004901           JUNCTION     17.47    17.47     0  03:01      0.0757      0.0759       2.380
  HS02004881           JUNCTION      7.55    79.19     0  03:01      0.0331       0.357       0.069
  HS02004876           JUNCTION     14.15    72.10     0  03:01      0.0636       0.324       0.171
  HS02004870           JUNCTION     14.17    58.27     0  03:01      0.0626       0.261       0.043
  HS02004862           JUNCTION     13.95    44.46     0  03:01      0.0685       0.198       0.089
  HS02004856           JUNCTION     10.64    30.79     0  03:01      0.0471       0.131       1.118
  HS02004852           JUNCTION      0.00    20.44     0  03:01           0       0.084       0.069
  HS02004848           JUNCTION     32.07    32.07     0  03:01       0.151       0.151       0.033
  HS02004842           JUNCTION      0.00    11.42     0  03:01           0      0.0801      19.392
  HS02004837           JUNCTION     30.75    41.91     0  03:01       0.288       0.355       0.228
  HS02004830           JUNCTION      0.15    41.84     0  03:01     0.00423       0.346       0.358
  HS02004824           JUNCTION     40.25    81.79     0  03:01       0.197       0.542       0.100
  HS02004817           JUNCTION      0.60    82.18     0  03:01      0.0169       0.558       3.079
  HS02004807           JUNCTION     26.15   107.24     0  03:01       0.115       0.657       0.656
  HS02004802           JUNCTION      0.00   106.49     0  03:01           0       0.653       0.618
  HS02004799           JUNCTION     21.02   227.51     0  03:01      0.0932        1.06       0.236
  HS02004792           JUNCTION     88.55   207.32     0  03:01       0.396       0.966       0.043
  HS02004788           JUNCTION     30.78   119.37     0  03:01       0.177       0.571       0.069
  HS02004785           JUNCTION      0.15    89.79     0  03:01     0.00423       0.396       0.125
  HS02004777           JUNCTION      0.03    90.24     0  03:01    0.000846       0.397       1.326
  HS02004770           JUNCTION     73.89    90.93     0  03:01       0.324       0.398       0.787
  HS02004480           JUNCTION      0.00   269.27     0  03:01           0        1.25       0.098
  HS02004479           JUNCTION      0.00    42.82     0  03:02           0       0.204       0.360
  HS02004478           JUNCTION      0.00   375.17     0  03:01           0        1.89       0.018
  YS02001745           JUNCTION    297.18   443.30     0  02:39        2.34        2.35       0.483
  YS02001748           JUNCTION      0.04   618.62     0  02:39     0.00127        2.34       0.961
  YS02001751           JUNCTION      0.01   381.53     0  02:30     0.00031         2.3       1.021
  YS02001754           JUNCTION      0.26   307.22     0  03:01     0.00733        2.29       1.094
  YS02001762           JUNCTION      0.00   326.31     0  02:53           0        1.65       1.288
  YS02001765           JUNCTION      0.00   325.96     0  02:53           0        1.65       1.483
  YS02001767           JUNCTION      0.54   326.11     0  02:53      0.0151        1.67       2.169
  YS02001770           JUNCTION    373.02   373.02     0  03:01        2.63        2.84       1.110
  YS02001774           JUNCTION      0.00   346.73     0  03:35           0        1.36       1.880
  YS02001779           JUNCTION      0.01   347.32     0  03:33    0.000141        1.33       1.173
  YS02001882           JUNCTION      0.00    28.88     0  02:45           0      0.0167      15.400
  YS02001884           JUNCTION      0.00    55.29     0  02:39           0      0.0526      13.109
  YS02001759           JUNCTION    359.84   641.60     0  02:53        2.43        3.84       0.600
  YS02001887           JUNCTION    453.35   453.50     0  03:01         2.8        2.83       0.299
  YS02001890           JUNCTION      0.00   453.49     0  03:01           0        2.79       0.329
  YS02001898           JUNCTION      0.00   453.47     0  03:01           0        2.77       0.118
  YS02001901           JUNCTION      0.00   453.73     0  03:01           0        2.77       0.246
  YS02001904           JUNCTION      0.00   453.67     0  03:01           0        2.77       0.224
  YS02001907           JUNCTION      0.00   872.43     0  02:58           0        6.12       0.390
  YS02001910           JUNCTION      0.00   446.89     0  02:54           0        3.37       0.349
  YS02001915           JUNCTION    263.65   446.69     0  02:54        1.96        3.39       0.178
  YS02001918           JUNCTION      0.00   211.95     0  02:54           0        1.44       0.130
  YS02001619           JUNCTION    257.27   257.27     0  03:01        1.95        1.95       0.629
  YS02001629           JUNCTION      0.00   203.80     0  02:48           0        1.63       1.806
  YS02001641           JUNCTION      0.00   430.17     0  02:48           0        3.84       0.553
  YS02001644           JUNCTION    282.70  1042.15     0  03:19        2.25        8.88       0.300
  YS02001652           JUNCTION      0.00   374.03     0  03:01           0        2.04       1.148
  YS02001655           JUNCTION      0.15   374.28     0  03:01     0.00434        2.07       1.223
  YS02001920           JUNCTION      2.87   212.27     0  02:54      0.0809        1.43       0.205
  YS02001923           JUNCTION      0.04   233.60     0  02:54     0.00106        1.34       0.048
  YS02001926           JUNCTION      0.05   186.14     0  02:54     0.00147        1.34       0.247
  YS02001929           JUNCTION    129.40   129.40     0  03:01        1.34        1.34       0.040
  YS02001658           JUNCTION      0.00   634.35     0  02:37           0         2.1       1.086
  YS02001661           JUNCTION      0.00   686.26     0  02:52           0        2.75      -0.239
  YS02001664           JUNCTION    327.80   362.15     0  02:52        2.09        2.74       0.265
  YS02001622           JUNCTION      0.00   257.48     0  03:00           0        1.94       1.658
  YS02001633           JUNCTION    287.40   429.29     0  02:48        2.32        3.89       0.831
  YS02001649           JUNCTION      0.00   913.87     0  02:49           0        5.18       0.725
  YS02001757           JUNCTION      0.00  1734.07     0  02:49           0        8.31       1.123
  YS02001895           JUNCTION      0.00   453.38     0  03:01           0        2.78       0.177
  YS02001625           JUNCTION      0.00   257.41     0  03:01           0         1.9       2.066
  YS02163301           JUNCTION      0.00   204.25     0  02:48           0         1.6       1.508
  YS02163601           JUNCTION      0.11   429.70     0  02:48      0.0031        3.86       0.785
  YS02164001           JUNCTION      0.00   429.78     0  02:48           0        3.84       0.525
  YS02001647           JUNCTION      0.00   652.18     0  02:48           0         4.3       0.661
  YSB1154              JUNCTION     25.19    25.19     0  03:01       0.113       0.114       1.285
  YSB6556              JUNCTION      0.00    24.91     0  03:01           0       0.115       1.100
  YSB1174              JUNCTION     19.06    19.06     0  03:01      0.0821      0.0827       1.581
  YSB1171              JUNCTION      0.00    43.19     0  03:01           0       0.203       3.220
  YS02006553           JUNCTION      0.00   667.08     0  03:17           0         5.9       0.258
  YS02006561           JUNCTION      0.00   964.22     0  03:00           0        8.42       0.009
  YS02006556           JUNCTION      0.00   667.24     0  03:17           0         5.9       0.189
  YS02006558           JUNCTION    392.87   964.53     0  03:00        2.57        8.45       0.062
  YS02001783           JUNCTION      0.00   964.19     0  03:01           0        8.42       0.030
  YS02001784           JUNCTION      1.06   965.17     0  03:01      0.0299        8.44       0.044
  YS02001786           JUNCTION      0.06   965.37     0  03:01     0.00159        8.44       0.041
  YS02001788           JUNCTION      0.07   965.44     0  03:01       0.002        8.44       0.024
  YS02001790           JUNCTION      0.15   965.54     0  03:01     0.00437        8.44       0.028
  YS02001791           JUNCTION      0.00   965.51     0  03:00           0        8.44       0.013
  YS02001793           JUNCTION      0.00   965.60     0  03:00           0        8.44       0.004
  WS02004139           JUNCTION      0.32   190.33     0  01:00     0.00905        3.43       0.679
  WSC                  OUTFALL       0.00   799.08     0  02:47           0        11.2       0.000
  3                    OUTFALL       0.00   241.41     0  02:40           0        2.65       0.000
  4                    OUTFALL       0.00    34.33     0  02:43           0      0.0288       0.000
  5                    OUTFALL       0.00     0.00     0  00:00           0           0       0.000 ltr
  JK-storage           STORAGE       0.00   965.76     0  03:01           0        8.59      -0.320
  CC-storage           STORAGE       0.00  1734.19     0  02:49           0        6.51       1.006
  XR-storage           STORAGE     690.11   690.11     0  03:01        9.61        10.2       0.001
  
  
  **********************
  Node Surcharge Summary
  **********************
  
  Surcharging occurs when water rises above the top of the highest conduit.
  ---------------------------------------------------------------------
                                               Max. Height   Min. Depth
                                   Hours       Above Crown    Below Rim
  Node                 Type      Surcharged         Meters       Meters
  ---------------------------------------------------------------------
  WS02004404           JUNCTION        0.48          0.030        2.750
  WS02004406           JUNCTION        0.15          0.007        2.443
  WS02004405           JUNCTION        0.40          0.019        2.781
  WS02006109           JUNCTION        1.38          0.242        1.578
  WS02006110           JUNCTION        0.72          0.076        1.774
  WS02006112           JUNCTION        1.09          0.183        1.497
  WS02006230           JUNCTION        0.39          0.029        1.541
  WS02006231           JUNCTION        0.46          0.050        1.480
  WS02006232           JUNCTION        1.07          0.173        1.307
  WS02006234           JUNCTION        0.47          0.074        1.166
  WS02006235           JUNCTION        0.51          0.104        1.186
  WS02006238           JUNCTION        0.57          0.119        1.311
  WS02006240           JUNCTION        0.30          0.028        1.362
  WS02006242           JUNCTION        0.37          0.061        0.759
  WS02006239           JUNCTION        0.41          0.059        1.231
  WS02006228           JUNCTION        1.36          0.294        1.906
  YS02001748           JUNCTION        5.08          1.190        0.000
  YS02001751           JUNCTION        5.23          1.200        0.000
  YS02001754           JUNCTION        5.44          1.150        0.000
  YS02001762           JUNCTION        5.64          1.090        0.060
  YS02001765           JUNCTION        5.61          1.020        0.080
  YS02001767           JUNCTION        5.59          0.982        0.048
  YS02001770           JUNCTION        5.57          0.920        0.000
  YS02001774           JUNCTION        5.63          1.012        0.038
  YS02001779           JUNCTION        5.43          0.680        0.000
  YS02001882           JUNCTION        0.80          0.607        0.223
  YS02001884           JUNCTION        0.83          0.650        0.220
  YS02001759           JUNCTION        5.66          1.107        0.103
  YS02001887           JUNCTION        0.92          0.735        0.215
  YS02001890           JUNCTION        0.95          0.756        0.004
  YS02001898           JUNCTION        0.75          0.523        0.217
  YS02001901           JUNCTION        0.88          0.670        0.200
  YS02001904           JUNCTION        0.86          0.633        0.217
  YS02001907           JUNCTION        1.49          0.950        0.000
  YS02001910           JUNCTION        1.00          0.778        0.322
  YS02001915           JUNCTION        0.78          0.587        0.413
  YS02001918           JUNCTION        0.53          0.268        0.542
  YS02001619           JUNCTION        5.25          0.610        0.000
  YS02001629           JUNCTION        5.25          0.470        0.000
  YS02001641           JUNCTION        5.62          0.988        0.112
  YS02001644           JUNCTION        5.62          0.920        0.000
  YS02001652           JUNCTION        5.49          1.130        0.000
  YS02001655           JUNCTION        5.27          1.200        0.000
  YS02001920           JUNCTION        0.56          0.339        0.801
  YS02001658           JUNCTION        5.11          1.300        0.000
  YS02001661           JUNCTION        0.24          1.349        0.041
  YS02001622           JUNCTION        5.29          0.620        0.000
  YS02001633           JUNCTION        5.60          0.994        0.066
  YS02001649           JUNCTION        5.64          1.050        0.000
  YS02001757           JUNCTION        5.74          1.210        0.000
  YS02001895           JUNCTION        0.77          0.555        0.195
  YS02001625           JUNCTION        5.54          0.780        0.000
  YS02163301           JUNCTION        5.58          0.927        0.103
  YS02163601           JUNCTION        5.64          1.068        0.012
  YS02164001           JUNCTION        5.61          1.000        0.100
  YS02001647           JUNCTION        5.52          0.843        0.057
  YS02006553           JUNCTION        1.56          0.964        0.226
  YS02006561           JUNCTION        0.66          0.281        0.869
  YS02006556           JUNCTION        1.20          0.879        0.471
  YS02006558           JUNCTION        1.17          0.858        0.542
  YS02001783           JUNCTION        1.28          1.061        0.539
  YS02001784           JUNCTION        1.33          0.981        0.509
  YS02001786           JUNCTION        1.28          1.109        0.321
  YS02001788           JUNCTION        1.27          1.480        0.000
  YS02001790           JUNCTION        2.94          1.157        0.000
  YS02001791           JUNCTION        3.18          0.902        1.018
  YS02001793           JUNCTION        3.33          1.412        1.188
  
  
  *********************
  Node Flooding Summary
  *********************
  
  Flooding refers to all water that overflows a node, whether it ponds or not.
  --------------------------------------------------------------------------
                                                             Total   Maximum
                                 Maximum   Time of Max       Flood    Ponded
                        Hours       Rate    Occurrence      Volume     Depth
  Node                 Flooded       LPS   days hr:min    10^6 ltr    Meters
  --------------------------------------------------------------------------
  YS02001748              0.01    332.52      0  02:41       0.001     0.000
  YS02001751              0.01     14.35      0  02:41       0.000     0.000
  YS02001754              0.01     18.77      0  02:40       0.000     0.000
  YS02001770              0.01      5.78      0  02:40       0.000     0.000
  YS02001779              2.80    347.18      0  03:33       1.309     0.000
  YS02001907              0.38    289.18      0  02:59       0.210     0.000
  YS02001619              0.01     16.23      0  02:38       0.000     0.000
  YS02001629              0.01     31.22      0  02:39       0.000     0.000
  YS02001644              4.96   1041.97      0  03:19       7.359     0.000
  YS02001652              0.01      9.34      0  03:06       0.000     0.000
  YS02001655              0.01    122.57      0  02:34       0.000     0.000
  YS02001658              0.01    354.02      0  02:37       0.001     0.000
  YS02001622              0.01     28.94      0  02:36       0.000     0.000
  YS02001649              0.08     40.03      0  02:57       0.004     0.000
  YS02001757              0.01     10.99      0  02:40       0.000     0.000
  YS02001625              0.85    169.20      0  03:01       0.242     0.000
  YS02001788              0.01     67.09      0  02:37       0.000     0.000
  YS02001790              0.01    107.32      0  02:36       0.000     0.000
  JK-storage              2.50    962.43      0  03:10       3.583     0.000
  XR-storage              6.97    585.65      0  03:01       5.866     0.000
  
  
  **********************
  Storage Volume Summary
  **********************
  
  --------------------------------------------------------------------------------------------------
                         Average     Avg  Evap Exfil       Maximum     Max    Time of Max    Maximum
                          Volume    Pcnt  Pcnt  Pcnt        Volume    Pcnt     Occurrence    Outflow
  Storage Unit           1000 m3    Full  Loss  Loss       1000 m3    Full    days hr:min        LPS
  --------------------------------------------------------------------------------------------------
  JK-storage               0.190      65     0     0         0.291     100       0  02:37     334.16
  CC-storage               2.982      19     0     0         3.870      25       0  03:31     200.00
  XR-storage               0.919      99     0     0         0.926     100       0  00:52     190.00
  
  
  ***********************
  Outfall Loading Summary
  ***********************
  
  -----------------------------------------------------------
                         Flow       Avg       Max       Total
                         Freq      Flow      Flow      Volume
  Outfall Node           Pcnt       LPS       LPS    10^6 ltr
  -----------------------------------------------------------
  WSC                  100.00    463.69    799.08      11.155
  3                     86.41    148.27    241.41       2.652
  4                      6.10     23.89     34.33       0.029
  5                      0.00      0.00      0.00       0.000
  -----------------------------------------------------------
  System                48.13    635.85    972.81      13.835
  
  
  ********************
  Link Flow Summary
  ********************
  
  -----------------------------------------------------------------------------
                                 Maximum  Time of Max   Maximum    Max/    Max/
                                  |Flow|   Occurrence   |Veloc|    Full    Full
  Link                 Type          LPS  days hr:min     m/sec    Flow   Depth
  -----------------------------------------------------------------------------
  WS02003066WSF200     CONDUIT    630.69     0  03:00      2.90    0.11    0.25
  WS02006287WS02006284 CONDUIT    375.44     0  03:02      1.98    0.17    0.29
  WS02006284WS02006280 CONDUIT    375.54     0  03:02      2.22    0.16    0.27
  WS02006280WS02006229 CONDUIT    375.58     0  03:02      3.58    0.08    0.19
  WS02006229WS02006228 CONDUIT    617.12     0  02:55      1.23    2.04    1.00
  WS02006256WS02006235 CONDUIT    149.96     0  00:15      2.14    1.59    1.00
  WS02006253WS02006251 CONDUIT     87.50     0  02:59      0.47    0.26    0.77
  WS02006252WS02006251 CONDUIT    200.34     0  02:30      1.97    0.74    0.76
  WS02006251WS02006249 CONDUIT    272.43     0  02:50      0.96    0.79    0.78
  WS02006249WS02006248 CONDUIT    250.96     0  02:32      1.03    1.37    0.78
  WS02006248WS02006247 CONDUIT    249.80     0  02:51      0.99    0.54    0.83
  WS02006247WS02006245 CONDUIT    252.49     0  02:50      0.93    2.00    0.88
  WS02006245WS02006243 CONDUIT    253.99     0  02:50      0.99    0.75    0.91
  WS02006243WS02006242 CONDUIT    256.07     0  02:50      0.82    0.55    0.98
  WS02006242WS02006240 CONDUIT    255.79     0  02:50      0.76    1.02    1.00
  WS02006240WS02006239 CONDUIT    258.00     0  02:50      0.84    0.81    1.00
  WS02006239WS02006238 CONDUIT    257.60     0  02:50      0.76    0.82    1.00
  WS02006238WS02006235 CONDUIT    257.39     0  02:50      0.75    0.57    1.00
  WS02006235WS02006234 CONDUIT    324.72     0  03:20      0.94    3.43    1.00
  WS02006234WS02006232 CONDUIT    325.75     0  03:21      0.89    0.66    1.00
  WS02006232WS02006231 CONDUIT    325.89     0  03:21      0.94    0.68    1.00
  WS02006231WS02006230 CONDUIT    327.62     0  03:22      1.29    4.97    1.00
  WS02006230WS02006229 CONDUIT    340.50     0  03:22      0.88    7.58    1.00
  WS02006228WS02006109 CONDUIT    617.05     0  02:55      1.23    2.70    1.00
  WS02006116WS02004401 CONDUIT    633.52     0  02:57      0.83    0.87    0.93
  WS02006115WS02006116 CONDUIT    635.68     0  02:57      0.92    0.82    0.85
  WS02006113WS02006111 CONDUIT    649.11     0  02:56      2.58    0.78    0.50
  WS02006112WS02006115 CONDUIT    640.47     0  02:57      0.85    0.38    0.92
  WS02006111WS02006112 CONDUIT    627.81     0  02:57      1.70    0.30    0.69
  WS02006110WS02006113 CONDUIT    619.00     0  02:56      1.43    0.56    0.81
  WS02006109WS02006110 CONDUIT    618.30     0  02:55      1.23    1.19    1.00
  WS02004411WS02004412 CONDUIT    630.86     0  02:59      1.00    0.90    0.75
  WS02004401WS02004402 CONDUIT    632.91     0  02:59      0.83    0.76    0.95
  WS02004413WS02003067 CONDUIT    630.45     0  03:00      1.21    0.27    0.63
  WS02004412WS02004413 CONDUIT    630.59     0  02:59      0.91    0.42    0.82
  WS02004410WS02004411 CONDUIT    631.04     0  02:59      1.01    0.86    0.74
  WS02004409WS02004410 CONDUIT    631.49     0  02:58      1.02    0.82    0.74
  WS02004407WS02004409 CONDUIT    631.94     0  02:58      1.51    0.22    0.53
  WS02004406WS02004407 CONDUIT    632.16     0  02:58      1.15    0.28    0.66
  WS02004405WS02004406 CONDUIT    632.05     0  02:58      0.80    1.25    1.00
  WS02004404WS02004405 CONDUIT    631.96     0  02:58      0.96    6.19    1.00
  WS02004403WS02004404 CONDUIT    631.77     0  02:58      0.85    0.46    0.98
  WS02004402WS02004403 CONDUIT    632.22     0  02:59      0.85    0.91    0.96
  WS02004139WS02001211 CONDUIT    190.96     0  06:50      0.53    0.24    0.47
  WS02004138WS02004139 CONDUIT    190.01     0  01:00      2.39    0.04    0.33
  WS02003067WS02003066 CONDUIT    630.62     0  03:00      1.32    0.20    0.44
  WS02001213WS02003059 CONDUIT    202.12     0  06:51      0.47    0.33    0.68
  WS02001212WS02001213 CONDUIT    200.00     0  06:50      1.03    0.31    0.36
  WS02001211WS02001212 CONDUIT    199.14     0  06:50      0.54    0.15    0.51
  WS02003072WS02003073 CONDUIT    797.01     0  02:46      1.63    1.72    0.45
  WS02003069WS02003072 CONDUIT    796.82     0  02:45      1.54    0.38    0.47
  WS02003060WS02003069 CONDUIT    796.72     0  02:45      1.79    0.31    0.42
  WS02003059WS02003060 CONDUIT    205.40     0  06:51      0.67    0.13    0.60
  HS02004901HS02004770 CONDUIT     17.70     0  03:01      0.07    0.07    0.39
  HS02004876HS02004881 CONDUIT     71.90     0  03:01      0.92    0.76    0.11
  HS02004870HS02004876 CONDUIT     58.03     0  03:01      0.63    0.04    0.13
  HS02004842HS02004848 CONDUIT     11.42     0  03:01      0.05    0.01    0.30
  HS02004837HS02004842 CONDUIT     11.94     0  03:02      0.42    0.01    0.32
  HS02004830HS02004837 CONDUIT     41.69     0  03:01      0.56    0.04    0.11
  HS02004824HS02004830 CONDUIT     41.67     0  03:01      0.58    0.05    0.10
  HS02004817HS02004824 CONDUIT     81.58     0  03:01      0.25    0.04    0.47
  HS02004770HS02004777 CONDUIT     90.21     0  03:01      0.32    0.16    0.41
  HS02004799HS02004480 CONDUIT    226.97     0  03:01      0.78    0.29    0.42
  HS02004792HS02004799 CONDUIT    206.60     0  03:01      0.88    0.13    0.33
  HS02004788HS02004792 CONDUIT    118.94     0  03:01      1.01    0.08    0.17
  HS02004785HS02004788 CONDUIT     89.52     0  03:02      0.66    0.67    0.19
  HS02004777HS02004785 CONDUIT     89.64     0  03:01      0.38    0.11    0.33
  HS02004480HS02004478 CONDUIT    269.12     0  03:01      1.20    1.13    0.32
  HS02004479HS02004480 CONDUIT     44.17     0  03:02      0.23    0.04    0.40
  HS02004862HS02004870 CONDUIT     44.23     0  03:01      0.64    0.05    0.10
  HS02004848HS02004852 CONDUIT     20.44     0  03:01      0.44    0.02    0.07
  HS02004856HS02004862 CONDUIT     30.57     0  03:01      0.47    0.03    0.09
  HS02004852HS02004856 CONDUIT     20.26     0  03:01      0.24    0.02    0.12
  HS02004802HS02004478 CONDUIT    106.59     0  03:02      0.45    0.09    0.35
  HS02004478WS02006287 CONDUIT    375.27     0  03:01      1.68    0.11    0.25
  HS02004817HS02004807 CONDUIT     82.18     0  03:01      0.19    0.05    0.62
  HS02004807HS02004802 CONDUIT    106.49     0  03:01      0.38    0.20    0.40
  YS02001759YS02001757 CONDUIT    641.56     0  02:53      0.82    0.46    1.00
  YS02001762YS02001759 CONDUIT    326.19     0  02:53      0.42    0.38    1.00
  YS02001765YS02001762 CONDUIT    326.31     0  02:53      0.42    0.31    1.00
  YS02001770YS02001767 CONDUIT    325.58     0  02:53      0.41    1.29    1.00
  YS02001774YS02001770 CONDUIT    346.73     0  03:35      0.44    0.22    1.00
  YS02001779YS02001774 CONDUIT    347.31     0  03:33      0.44    0.17    1.00
  YS02001649YS02001757 CONDUIT    913.74     0  02:49      1.16    0.55    1.00
  YS02001767YS02001765 CONDUIT    325.96     0  02:53      0.42    0.41    1.00
  YS02006561YS02001783 CONDUIT    964.19     0  03:01      2.11    0.50    1.00
  YS02001783YS02001784 CONDUIT    964.11     0  03:01      1.92    1.33    1.00
  YS02001784YS02001785 CONDUIT    965.32     0  03:01      1.92    2.25    1.00
  YS02001788YS02001790 CONDUIT    965.38     0  03:01      2.30    0.71    1.00
  YS02001790YS02001791 CONDUIT    965.51     0  03:00      2.77    1.05    1.00
  YS02001791YS02001793 CONDUIT    965.60     0  03:00      5.56    0.41    1.00
  YS02001910YS02001907 CONDUIT    447.01     0  02:54      0.57    0.25    1.00
  YS02001786YS02001788 CONDUIT    965.37     0  03:01      2.21    1.86    1.00
  YS02001915YS02001910 CONDUIT    446.89     0  02:54      0.57    0.22    1.00
  YS02001918YS02001915 CONDUIT    212.57     0  02:54      0.44    0.12    1.00
  YS02001923YS02001920 CONDUIT    209.40     0  02:54      0.68    0.09    1.00
  YS02001926YS02001923 CONDUIT    233.56     0  02:54      0.79    0.33    0.89
  YS02001929YS02001926 CONDUIT    186.09     0  02:54      0.84    0.09    0.80
  YS02001920YS02001918 CONDUIT    211.95     0  02:54      0.67    0.21    1.00
  YS02001629YS02163301 CONDUIT    204.25     0  02:48      0.26    0.25    1.00
  YS02001619YS02001622 CONDUIT    257.48     0  03:00      0.61    0.38    1.00
  YS02001622YS02001625 CONDUIT    257.41     0  03:01      0.33    0.14    1.00
  YS02001625YS02001629 CONDUIT    203.80     0  02:48      0.26    0.10    1.00
  YS02163301YS02001633 CONDUIT    204.30     0  02:48      0.26    0.19    1.00
  YS02163601YS02164001 CONDUIT    429.78     0  02:48      0.55    0.38    1.00
  YS02164001YS02001641 CONDUIT    430.17     0  02:48      0.55    0.59    1.00
  YS02001641YS02001644 CONDUIT    430.32     0  02:48      0.55    1.39    1.00
  YS02001647YS02001649 CONDUIT    652.30     0  02:48      0.83    0.34    1.00
  YS02006553YS02006556 CONDUIT    667.24     0  03:17      0.85    0.57    1.00
  YS02006556YS02006558 CONDUIT    667.40     0  03:17      0.85    0.53    1.00
  YSB6556YSB1171       CONDUIT     24.81     0  03:03      0.09    0.03    0.67
  YS02001907YS02006553 CONDUIT    667.08     0  03:17      0.74    0.78    1.00
  YS02006558YS02006561 CONDUIT    964.22     0  03:00      3.41    2.13    1.00
  YS02001633YS02163601 CONDUIT    429.59     0  02:48      0.55    0.45    1.00
  YS02001644YS02001647 CONDUIT    652.18     0  02:48      0.83    0.38    1.00
  YS02001745YS02001748 CONDUIT    618.58     0  02:39      1.48    0.24    0.94
  YS02001748YS02001751 CONDUIT    381.52     0  02:30      1.05    0.19    1.00
  YS02001751YS02001754 CONDUIT    306.96     0  03:01      0.88    0.15    1.00
  YS02001754YS02001757 CONDUIT    307.06     0  03:01      0.39    0.12    1.00
  YS02001882YS02001884 CONDUIT     28.88     0  02:45      0.09    0.03    1.00
  YS02001884YS02001887 CONDUIT     55.29     0  02:39      0.08    0.07    1.00
  YS02001890YS02001895 CONDUIT    453.38     0  03:01      0.58    0.21    1.00
  YS02001895YS02001898 CONDUIT    453.47     0  03:01      0.59    0.79    1.00
  YS02001898YS02001901 CONDUIT    453.73     0  03:01      0.58    0.29    1.00
  YS02001901YS02001904 CONDUIT    453.67     0  03:01      0.58    0.70    1.00
  YS02001904YS02001907 CONDUIT    453.63     0  03:01      0.58    0.16    1.00
  YS02001887YS02001890 CONDUIT    453.49     0  03:01      0.58    0.78    1.00
  YS02001652YS02001649 CONDUIT    374.38     0  03:01      0.50    0.19    1.00
  YS02001655YS02001652 CONDUIT    374.03     0  03:01      0.93    0.18    1.00
  YS02001658YS02001655 CONDUIT    374.12     0  03:01      1.21    0.16    1.00
  YS02001661YS02001658 CONDUIT    634.35     0  02:37      1.56    0.25    1.00
  YS02001664YS02001661 CONDUIT    686.26     0  02:52      1.49    0.22    0.73
  YSB1154YSB6556       CONDUIT     24.91     0  03:01      0.18    0.04    0.56
  YSB1174YSB1171       CONDUIT     18.78     0  03:01      0.07    0.03    0.68
  YSB1171HS02004479    CONDUIT     42.82     0  03:02      0.54    0.03    0.53
  HS02004881HS02006253 CONDUIT     79.15     0  03:01      2.19    0.02    0.18
  YS02001793JiankangQianchi CONDUIT    965.76     0  03:01     13.02    0.08    1.00
  YS02001757CaochengTiaoxuchi CONDUIT   1734.19     0  02:49      2.28    0.76    1.00
  WSF200WS02003060     CONDUIT    631.05     0  03:00      1.98    0.14    0.33
  1                    CONDUIT    799.08     0  02:47      3.13    0.28    0.36
  2                    CONDUIT     34.33     0  02:43      3.56    0.08    0.19
  3                    CONDUIT    241.41     0  02:40      8.25    0.38    0.43
  4                    CONDUIT      0.00     0  00:00      0.00    0.00    0.00
  CC-Pump-1            PUMP         0.00     0  00:00              0.00
  CC-Pump-2            PUMP       200.00     0  02:30              1.00
  JK-Pump-1            PUMP         0.00     0  00:00              0.00
  JK-Pump-2            PUMP       300.00     0  00:20              1.00
  XR-Pump-1            PUMP        95.00     0  01:00              1.00
  XR-Pump-2            PUMP         0.00     0  00:00              0.00
  XR-Pump-3            PUMP        95.00     0  00:00              1.00
  XR-Pump-4            PUMP         0.00     0  00:00              0.00
  
  
  ***************************
  Flow Classification Summary
  ***************************
  
  -------------------------------------------------------------------------------------
                      Adjusted    ---------- Fraction of Time in Flow Class ---------- 
                       /Actual         Up    Down  Sub   Sup   Up    Down  Norm  Inlet 
  Conduit               Length    Dry  Dry   Dry   Crit  Crit  Crit  Crit  Ltd   Ctrl  
  -------------------------------------------------------------------------------------
  WS02003066WSF200        1.00   0.06  0.00  0.00  0.00  0.94  0.00  0.00  0.67  0.00
  WS02006287WS02006284    1.00   0.04  0.01  0.00  0.57  0.38  0.00  0.00  0.65  0.00
  WS02006284WS02006280    1.00   0.05  0.00  0.00  0.00  0.00  0.00  0.95  0.00  0.00
  WS02006280WS02006229    1.00   0.05  0.00  0.00  0.00  0.00  0.00  0.95  0.00  0.00
  WS02006229WS02006228    1.00   0.00  0.00  0.00  1.00  0.00  0.00  0.00  0.00  0.00
  WS02006256WS02006235    1.00   0.00  0.00  0.00  1.00  0.00  0.00  0.00  0.00  0.00
  WS02006253WS02006251    1.00   0.03  0.02  0.00  0.95  0.00  0.00  0.00  0.00  0.00
  WS02006252WS02006251    1.00   0.08  0.00  0.00  0.00  0.00  0.92  0.00  0.00  0.00
  WS02006251WS02006249    1.00   0.00  0.00  0.00  1.00  0.00  0.00  0.00  0.34  0.00
  WS02006249WS02006248    1.00   0.00  0.00  0.00  0.81  0.00  0.18  0.00  0.00  0.00
  WS02006248WS02006247    1.00   0.00  0.00  0.00  0.97  0.00  0.00  0.02  0.23  0.00
  WS02006247WS02006245    1.00   0.00  0.00  0.00  0.98  0.00  0.00  0.02  0.00  0.00
  WS02006245WS02006243    1.00   0.01  0.00  0.00  0.96  0.00  0.00  0.04  0.04  0.00
  WS02006243WS02006242    1.00   0.01  0.00  0.00  0.99  0.00  0.00  0.00  0.18  0.00
  WS02006242WS02006240    1.00   0.01  0.00  0.00  0.99  0.00  0.00  0.00  0.00  0.00
  WS02006240WS02006239    1.00   0.01  0.00  0.00  0.96  0.00  0.00  0.03  0.01  0.00
  WS02006239WS02006238    1.00   0.00  0.00  0.00  1.00  0.00  0.00  0.00  0.02  0.00
  WS02006238WS02006235    1.00   0.00  0.00  0.00  1.00  0.00  0.00  0.00  0.00  0.00
  WS02006235WS02006234    1.00   0.00  0.00  0.00  0.96  0.00  0.03  0.00  0.00  0.00
  WS02006234WS02006232    1.00   0.00  0.00  0.00  0.99  0.00  0.00  0.00  0.08  0.00
  WS02006232WS02006231    1.00   0.00  0.00  0.00  0.99  0.00  0.00  0.00  0.00  0.00
  WS02006231WS02006230    1.00   0.01  0.00  0.00  0.29  0.00  0.70  0.00  0.00  0.00
  WS02006230WS02006229    1.00   0.00  0.00  0.00  0.99  0.00  0.00  0.01  0.01  0.00
  WS02006228WS02006109    1.00   0.00  0.00  0.00  1.00  0.00  0.00  0.00  0.01  0.00
  WS02006116WS02004401    1.00   0.03  0.00  0.00  0.97  0.00  0.00  0.00  0.00  0.00
  WS02006115WS02006116    1.00   0.03  0.00  0.00  0.97  0.00  0.00  0.01  0.00  0.00
  WS02006113WS02006111    1.00   0.01  0.00  0.00  0.00  0.98  0.00  0.00  0.16  0.00
  WS02006112WS02006115    1.00   0.02  0.01  0.00  0.97  0.00  0.00  0.00  0.00  0.00
  WS02006111WS02006112    1.00   0.02  0.00  0.00  0.98  0.00  0.00  0.00  0.92  0.00
  WS02006110WS02006113    1.00   0.00  0.01  0.00  0.99  0.00  0.00  0.00  0.00  0.00
  WS02006109WS02006110    1.00   0.00  0.00  0.00  1.00  0.00  0.00  0.00  0.00  0.00
  WS02004411WS02004412    1.00   0.04  0.00  0.00  0.96  0.00  0.00  0.00  0.00  0.00
  WS02004401WS02004402    1.00   0.03  0.00  0.00  0.97  0.00  0.00  0.00  0.00  0.00
  WS02004413WS02003067    1.00   0.04  0.01  0.00  0.00  0.00  0.95  0.00  0.00  0.00
  WS02004412WS02004413    1.00   0.04  0.00  0.00  0.96  0.00  0.00  0.00  0.01  0.00
  WS02004410WS02004411    1.00   0.04  0.00  0.00  0.96  0.00  0.00  0.00  0.01  0.00
  WS02004409WS02004410    1.00   0.04  0.00  0.00  0.96  0.00  0.00  0.00  0.03  0.00
  WS02004407WS02004409    1.00   0.04  0.00  0.00  0.96  0.00  0.00  0.00  0.91  0.00
  WS02004406WS02004407    1.00   0.00  0.04  0.00  0.96  0.00  0.00  0.00  0.00  0.00
  WS02004405WS02004406    1.00   0.00  0.00  0.00  1.00  0.00  0.00  0.00  0.03  0.00
  WS02004404WS02004405    1.00   0.00  0.00  0.00  1.00  0.00  0.00  0.00  0.00  0.00
  WS02004403WS02004404    1.00   0.00  0.03  0.00  0.97  0.00  0.00  0.00  0.00  0.00
  WS02004402WS02004403    1.00   0.03  0.00  0.00  0.97  0.00  0.00  0.00  0.00  0.00
  WS02004139WS02001211    1.00   0.00  0.00  0.00  1.00  0.00  0.00  0.00  0.00  0.00
  WS02004138WS02004139    1.00   0.00  0.00  0.00  1.00  0.00  0.00  0.00  1.00  0.00
  WS02003067WS02003066    1.00   0.05  0.00  0.00  0.94  0.00  0.00  0.00  0.00  0.00
  WS02001213WS02003059    1.00   0.00  0.00  0.00  1.00  0.00  0.00  0.00  0.00  0.00
  WS02001212WS02001213    1.00   0.00  0.00  0.00  0.73  0.00  0.27  0.00  0.00  0.00
  WS02001211WS02001212    1.00   0.00  0.00  0.00  1.00  0.00  0.00  0.00  0.00  0.00
  WS02003072WS02003073    1.00   0.00  0.00  0.00  0.00  0.00  0.00  1.00  0.00  0.00
  WS02003069WS02003072    1.00   0.00  0.00  0.00  1.00  0.00  0.00  0.00  0.40  0.00
  WS02003060WS02003069    1.00   0.00  0.00  0.00  0.99  0.01  0.00  0.00  0.22  0.00
  WS02003059WS02003060    1.00   0.00  0.00  0.00  1.00  0.00  0.00  0.00  0.02  0.00
  HS02004901HS02004770    1.00   0.05  0.00  0.00  0.95  0.00  0.00  0.00  0.00  0.00
  HS02004876HS02004881    1.00   0.00  0.00  0.00  0.91  0.09  0.00  0.00  0.00  0.00
  HS02004870HS02004876    1.00   0.00  0.00  0.00  1.00  0.00  0.00  0.00  0.95  0.00
  HS02004842HS02004848    1.00   0.00  0.05  0.00  0.95  0.00  0.00  0.00  0.58  0.00
  HS02004837HS02004842    1.00   0.00  0.00  0.00  1.00  0.00  0.00  0.00  0.11  0.00
  HS02004830HS02004837    1.00   0.00  0.00  0.00  1.00  0.00  0.00  0.00  0.99  0.00
  HS02004824HS02004830    1.00   0.00  0.00  0.00  1.00  0.00  0.00  0.00  0.00  0.00
  HS02004817HS02004824    1.00   0.00  0.00  0.00  1.00  0.00  0.00  0.00  1.00  0.00
  HS02004770HS02004777    1.00   0.00  0.05  0.00  0.95  0.00  0.00  0.00  0.03  0.00
  HS02004799HS02004480    1.00   0.00  0.01  0.00  0.95  0.00  0.04  0.00  0.00  0.00
  HS02004792HS02004799    1.00   0.00  0.00  0.00  1.00  0.00  0.00  0.00  0.98  0.00
  HS02004788HS02004792    1.00   0.00  0.00  0.00  1.00  0.00  0.00  0.00  0.98  0.00
  HS02004785HS02004788    1.00   0.00  0.00  0.00  1.00  0.00  0.00  0.00  0.00  0.00
  HS02004777HS02004785    1.00   0.00  0.00  0.00  1.00  0.00  0.00  0.00  0.14  0.00
  HS02004480HS02004478    1.00   0.05  0.00  0.00  0.64  0.00  0.00  0.31  0.00  0.00
  HS02004479HS02004480    1.00   0.01  0.00  0.00  0.99  0.00  0.00  0.00  0.12  0.00
  HS02004862HS02004870    1.00   0.00  0.00  0.00  1.00  0.00  0.00  0.00  0.05  0.00
  HS02004848HS02004852    1.00   0.05  0.00  0.00  0.95  0.00  0.00  0.00  0.61  0.00
  HS02004856HS02004862    1.00   0.00  0.06  0.00  0.94  0.00  0.00  0.00  0.80  0.00
  HS02004852HS02004856    1.00   0.05  0.00  0.00  0.95  0.00  0.00  0.00  0.85  0.00
  HS02004802HS02004478    1.00   0.05  0.00  0.00  0.95  0.00  0.00  0.00  0.03  0.00
  HS02004478WS02006287    1.00   0.06  0.00  0.00  0.70  0.25  0.00  0.00  0.66  0.00
  HS02004817HS02004807    1.00   0.00  0.05  0.00  0.95  0.00  0.00  0.00  0.01  0.00
  HS02004807HS02004802    1.00   0.05  0.00  0.00  0.95  0.00  0.00  0.00  0.00  0.00
  YS02001759YS02001757    1.00   0.00  0.00  0.00  1.00  0.00  0.00  0.00  0.16  0.00
  YS02001762YS02001759    1.00   0.00  0.00  0.00  1.00  0.00  0.00  0.00  0.03  0.00
  YS02001765YS02001762    1.00   0.00  0.00  0.00  1.00  0.00  0.00  0.00  0.16  0.00
  YS02001770YS02001767    1.00   0.00  0.00  0.00  1.00  0.00  0.00  0.00  0.00  0.00
  YS02001774YS02001770    1.00   0.00  0.05  0.00  0.95  0.00  0.00  0.00  0.04  0.00
  YS02001779YS02001774    1.00   0.00  0.00  0.00  1.00  0.00  0.00  0.00  0.21  0.00
  YS02001649YS02001757    1.00   0.00  0.00  0.00  1.00  0.00  0.00  0.00  0.17  0.00
  YS02001767YS02001765    1.00   0.00  0.00  0.00  1.00  0.00  0.00  0.00  0.00  0.00
  YS02006561YS02001783    1.00   0.06  0.00  0.00  0.51  0.43  0.00  0.00  0.56  0.00
  YS02001783YS02001784    1.00   0.00  0.06  0.00  0.94  0.00  0.00  0.00  0.01  0.00
  YS02001784YS02001785    1.00   0.00  0.00  0.00  1.00  0.00  0.00  0.00  0.20  0.00
  YS02001788YS02001790    1.00   0.00  0.00  0.00  0.63  0.37  0.00  0.00  0.48  0.00
  YS02001790YS02001791    1.00   0.00  0.00  0.00  0.57  0.43  0.00  0.00  0.33  0.00
  YS02001791YS02001793    1.00   0.00  0.00  0.00  0.59  0.41  0.00  0.00  0.02  0.00
  YS02001910YS02001907    1.00   0.00  0.00  0.00  0.99  0.00  0.00  0.01  0.13  0.00
  YS02001786YS02001788    1.00   0.00  0.00  0.00  0.61  0.39  0.00  0.00  0.00  0.00
  YS02001915YS02001910    1.00   0.00  0.00  0.00  0.99  0.01  0.00  0.00  0.18  0.00
  YS02001918YS02001915    1.00   0.00  0.00  0.00  1.00  0.00  0.00  0.00  0.58  0.00
  YS02001923YS02001920    1.00   0.00  0.00  0.00  1.00  0.00  0.00  0.00  0.85  0.00
  YS02001926YS02001923    1.00   0.00  0.04  0.00  0.13  0.00  0.83  0.00  0.00  0.00
  YS02001929YS02001926    1.00   0.00  0.05  0.00  0.95  0.00  0.00  0.00  0.78  0.00
  YS02001920YS02001918    1.00   0.00  0.00  0.00  1.00  0.00  0.00  0.00  0.00  0.00
  YS02001629YS02163301    1.00   0.05  0.00  0.00  0.94  0.00  0.00  0.00  0.00  0.00
  YS02001619YS02001622    1.00   0.05  0.00  0.00  0.95  0.00  0.00  0.00  0.00  0.00
  YS02001622YS02001625    1.00   0.05  0.00  0.00  0.95  0.00  0.00  0.00  0.07  0.00
  YS02001625YS02001629    1.00   0.05  0.02  0.00  0.92  0.00  0.01  0.00  0.00  0.00
  YS02163301YS02001633    1.00   0.00  0.05  0.00  0.95  0.00  0.00  0.00  0.00  0.00
  YS02163601YS02164001    1.00   0.00  0.04  0.00  0.96  0.00  0.00  0.00  0.00  0.00
  YS02164001YS02001641    1.00   0.00  0.04  0.00  0.96  0.00  0.00  0.00  0.06  0.00
  YS02001641YS02001644    1.00   0.00  0.00  0.00  1.00  0.00  0.00  0.00  0.00  0.00
  YS02001647YS02001649    1.00   0.00  0.06  0.00  0.94  0.00  0.00  0.00  0.01  0.00
  YS02006553YS02006556    1.00   0.00  0.00  0.00  1.00  0.00  0.00  0.00  0.03  0.00
  YS02006556YS02006558    1.00   0.00  0.00  0.00  1.00  0.00  0.00  0.00  0.00  0.00
  YSB6556YSB1171          1.00   0.02  0.03  0.00  0.95  0.00  0.00  0.00  0.00  0.00
  YS02001907YS02006553    1.00   0.00  0.00  0.00  1.00  0.00  0.00  0.00  0.00  0.00
  YS02006558YS02006561    1.00   0.06  0.00  0.00  0.18  0.76  0.00  0.00  0.48  0.00
  YS02001633YS02163601    1.00   0.00  0.00  0.00  1.00  0.00  0.00  0.00  0.16  0.00
  YS02001644YS02001647    1.00   0.00  0.06  0.00  0.94  0.00  0.00  0.00  0.00  0.00
  YS02001745YS02001748    1.00   0.00  0.00  0.00  0.88  0.01  0.00  0.11  0.04  0.00
  YS02001748YS02001751    1.00   0.00  0.00  0.00  0.97  0.03  0.00  0.00  0.15  0.00
  YS02001751YS02001754    1.00   0.00  0.00  0.00  0.93  0.00  0.00  0.07  0.02  0.00
  YS02001754YS02001757    1.00   0.00  0.00  0.00  1.00  0.00  0.00  0.00  0.20  0.00
  YS02001882YS02001884    1.00   0.05  0.00  0.00  0.95  0.00  0.00  0.00  0.00  0.00
  YS02001884YS02001887    1.00   0.03  0.01  0.00  0.96  0.00  0.00  0.00  0.00  0.00
  YS02001890YS02001895    1.00   0.00  0.06  0.00  0.94  0.00  0.00  0.00  0.00  0.00
  YS02001895YS02001898    1.00   0.06  0.00  0.00  0.93  0.00  0.01  0.00  0.00  0.00
  YS02001898YS02001901    1.00   0.06  0.00  0.00  0.94  0.00  0.00  0.00  0.02  0.00
  YS02001901YS02001904    1.00   0.06  0.00  0.00  0.94  0.00  0.00  0.00  0.00  0.00
  YS02001904YS02001907    1.00   0.00  0.06  0.00  0.94  0.00  0.00  0.00  0.00  0.00
  YS02001887YS02001890    1.00   0.00  0.00  0.00  0.99  0.00  0.01  0.00  0.00  0.00
  YS02001652YS02001649    1.00   0.00  0.00  0.00  1.00  0.00  0.00  0.00  0.18  0.00
  YS02001655YS02001652    1.00   0.00  0.00  0.00  0.93  0.00  0.00  0.07  0.02  0.00
  YS02001658YS02001655    1.00   0.00  0.05  0.00  0.92  0.03  0.00  0.00  0.11  0.00
  YS02001661YS02001658    1.00   0.05  0.00  0.00  0.88  0.07  0.00  0.00  0.06  0.00
  YS02001664YS02001661    1.00   0.05  0.00  0.00  0.87  0.09  0.00  0.00  0.22  0.00
  YSB1154YSB6556          1.00   0.05  0.00  0.00  0.95  0.00  0.00  0.00  0.02  0.00
  YSB1174YSB1171          1.00   0.03  0.01  0.00  0.96  0.00  0.00  0.00  0.00  0.00
  YSB1171HS02004479       1.00   0.01  0.00  0.00  0.97  0.00  0.00  0.02  0.11  0.00
  HS02004881HS02006253    1.00   0.03  0.00  0.00  0.49  0.08  0.00  0.40  0.41  0.00
  YS02001793JiankangQianchi    1.00   0.00  0.00  0.00  0.76  0.24  0.00  0.00  0.16  0.00
  YS02001757CaochengTiaoxuchi    1.00   0.00  0.08  0.00  0.92  0.00  0.00  0.00  0.00  0.00
  WSF200WS02003060        1.00   0.00  0.06  0.00  0.19  0.75  0.00  0.00  0.12  0.00
  1                       1.00   0.00  0.00  0.00  0.00  1.00  0.00  0.00  0.27  0.00
  2                       1.00   0.94  0.00  0.00  0.00  0.06  0.00  0.00  0.00  0.00
  3                       1.00   0.14  0.00  0.00  0.00  0.86  0.00  0.00  0.01  0.00
  4                       1.00   1.00  0.00  0.00  0.00  0.00  0.00  0.00  0.00  0.00
  
  
  *************************
  Conduit Surcharge Summary
  *************************
  
  ----------------------------------------------------------------------------
                                                           Hours        Hours 
                         --------- Hours Full --------   Above Full   Capacity
  Conduit                Both Ends  Upstream  Dnstream   Normal Flow   Limited
  ----------------------------------------------------------------------------
  WS02006229WS02006228        1.36      1.41      1.36      3.29         1.36
  WS02006256WS02006235        6.11      6.12      6.86      5.01         0.01
  WS02006249WS02006248        0.01      0.01      0.01      2.51         0.01
  WS02006247WS02006245        0.01      0.01      0.01      3.45         0.01
  WS02006243WS02006242        0.01      0.01      0.37      0.01         0.01
  WS02006242WS02006240        0.30      0.30      0.42      0.01         0.01
  WS02006240WS02006239        0.35      0.35      0.41      0.01         0.01
  WS02006239WS02006238        0.48      0.48      0.57      0.01         0.01
  WS02006238WS02006235        0.56      0.56      0.78      0.01         0.01
  WS02006235WS02006234        0.47      0.47      0.51      6.15         0.01
  WS02006234WS02006232        0.52      0.52      1.07      0.01         0.01
  WS02006232WS02006231        0.46      0.46      1.07      0.01         0.01
  WS02006231WS02006230        0.39      0.39      0.49      6.16         0.01
  WS02006230WS02006229        1.49      2.87      1.49      6.27         1.49
  WS02006228WS02006109        1.38      1.46      1.38      4.61         1.38
  WS02006112WS02006115        0.01      0.01      1.09      0.01         0.01
  WS02006111WS02006112        0.01      0.01      3.41      0.01         0.01
  WS02006110WS02006113        0.01      0.01      1.44      0.01         0.01
  WS02006109WS02006110        0.72      0.72      1.46      0.73         0.01
  WS02004406WS02004407        0.01      0.01      0.15      0.01         0.01
  WS02004405WS02004406        0.15      0.40      0.15      0.96         0.15
  WS02004404WS02004405        0.40      0.48      0.40      6.00         0.40
  WS02004403WS02004404        0.01      0.01      0.48      0.01         0.01
  WS02003072WS02003073        0.01      0.01      0.01      2.64         0.01
  HS02004480HS02004478        0.01      0.01      0.01      0.25         0.01
  YS02001759YS02001757        5.66      5.66      5.74      0.01         0.01
  YS02001762YS02001759        5.64      5.64      5.66      0.01         0.01
  YS02001765YS02001762        5.61      5.61      5.64      0.01         0.01
  YS02001770YS02001767        5.58      5.58      5.59      0.28         0.71
  YS02001774YS02001770        5.57      5.57      5.63      0.01         0.01
  YS02001779YS02001774        5.43      5.43      5.63      0.01         0.01
  YS02001649YS02001757        5.64      5.64      5.74      0.01         0.01
  YS02001767YS02001765        5.59      5.59      5.61      0.01         0.01
  YS02006561YS02001783        0.66      0.66      1.28      0.01         0.01
  YS02001783YS02001784        1.28      1.28      1.33      1.09         1.01
  YS02001784YS02001785        1.28      1.33      1.28      2.08         1.28
  YS02001788YS02001790        1.27      1.27      2.94      0.01         0.01
  YS02001790YS02001791        2.94      2.94      3.18      0.49         0.49
  YS02001791YS02001793        3.18      3.18      3.38      0.01         0.01
  YS02001910YS02001907        1.00      1.00      1.49      0.01         0.01
  YS02001786YS02001788        1.27      1.28      1.27      1.69         1.27
  YS02001915YS02001910        0.78      0.78      1.00      0.01         0.01
  YS02001918YS02001915        0.53      0.53      0.78      0.01         0.01
  YS02001923YS02001920        0.29      0.29      0.56      0.01         0.01
  YS02001920YS02001918        0.53      0.53      0.56      0.01         0.01
  YS02001629YS02163301        5.57      5.57      5.58      0.01         0.01
  YS02001619YS02001622        5.25      5.25      5.29      0.01         0.01
  YS02001622YS02001625        5.29      5.29      5.54      0.01         0.01
  YS02001625YS02001629        5.25      5.25      5.54      0.01         0.01
  YS02163301YS02001633        5.58      5.58      5.61      0.01         0.01
  YS02163601YS02164001        5.61      5.61      5.64      0.01         0.01
  YS02164001YS02001641        5.61      5.61      5.62      0.01         0.02
  YS02001641YS02001644        5.62      5.62      5.62      1.21         1.25
  YS02001647YS02001649        5.52      5.52      5.64      0.01         0.01
  YS02006553YS02006556        1.20      1.20      1.56      0.01         0.01
  YS02006556YS02006558        1.36      1.36      1.63      0.01         0.01
  YS02001907YS02006553        2.09      2.09      2.31      0.01         0.01
  YS02006558YS02006561        0.89      1.17      0.89      1.94         0.89
  YS02001633YS02163601        5.60      5.60      5.64      0.01         0.01
  YS02001644YS02001647        5.52      5.52      5.62      0.01         0.01
  YS02001745YS02001748        0.01      0.01      5.08      0.01         0.01
  YS02001748YS02001751        5.13      5.13      5.23      0.01         0.01
  YS02001751YS02001754        5.23      5.23      5.44      0.01         0.01
  YS02001754YS02001757        5.50      5.50      5.74      0.01         0.01
  YS02001882YS02001884        0.80      0.80      0.83      0.01         0.01
  YS02001884YS02001887        0.89      0.89      0.92      0.01         0.01
  YS02001890YS02001895        0.77      0.77      1.02      0.01         0.01
  YS02001895YS02001898        0.75      0.75      0.77      0.01         0.01
  YS02001898YS02001901        0.78      0.78      0.88      0.01         0.01
  YS02001901YS02001904        0.86      0.86      0.88      0.01         0.01
  YS02001904YS02001907        0.86      0.86      1.58      0.01         0.01
  YS02001887YS02001890        0.95      0.95      0.98      0.01         0.01
  YS02001652YS02001649        5.53      5.53      5.64      0.01         0.01
  YS02001655YS02001652        5.27      5.27      5.49      0.01         0.01
  YS02001658YS02001655        5.11      5.11      5.27      0.01         0.01
  YS02001661YS02001658        0.22      0.22      5.11      0.01         0.01
  YS02001664YS02001661        0.01      0.01      1.23      0.01         0.01
  YS02001793JiankangQianchi        3.33      3.33      4.47      0.01         0.01
  YS02001757CaochengTiaoxuchi        4.94      4.94      5.74      0.01         0.01
  
  
  ***************
  Pumping Summary
  ***************
  
  ---------------------------------------------------------------------------------------------------------
                                                  Min       Avg       Max     Total     Power    % Time Off
                        Percent   Number of      Flow      Flow      Flow    Volume     Usage    Pump Curve
  Pump                 Utilized   Start-Ups       LPS       LPS       LPS  10^6 ltr     Kw-hr    Low   High
  ---------------------------------------------------------------------------------------------------------
  CC-Pump-1                0.00           0      0.00      0.00      0.00     0.000      0.00    0.0    0.0
  CC-Pump-2               65.17           4      0.00    144.43    200.00     2.533      2.67    0.0   10.9
  JK-Pump-1                0.00           0      0.00      0.00      0.00     0.000      0.00    0.0    0.0
  JK-Pump-2               97.86           2      0.00    229.11    300.00     5.034     45.69    0.0    0.0
  XR-Pump-1               46.81           7      0.00     55.12     95.00     0.741      3.34    0.0    0.0
  XR-Pump-2                0.00           0      0.00      0.00      0.00     0.000      0.00    0.0    0.0
  XR-Pump-3              100.00           1      0.00     95.00     95.00     2.679     13.04    0.0    0.0
  XR-Pump-4                0.00           0      0.00      0.00      0.00     0.000      0.00    0.0    0.0
  

  Analysis begun on:  Wed Jan  5 18:42:19 2022
  Analysis ended on:  Wed Jan  5 18:42:23 2022
  Total elapsed time: 00:00:04