
  EPA STORM WATER MANAGEMENT MODEL - VERSION 5.1 (Build 5.3.0.dev0)
  --------------------------------------------------------------

  WARNING 04: minimum elevation drop used for Conduit WS02004404WS02004405
  WARNING 03: negative offset ignored for Link YS02001904YS02001907
  
  *********************************************************
  NOTE: The summary statistics displayed in this report are
  based on results found at every computational time step,  
  not just on results from each reporting time step.
  *********************************************************
  
  ****************
  Analysis Options
  ****************
  Flow Units ............... LPS
  Process Models:
    Rainfall/Runoff ........ YES
    RDII ................... NO
    Snowmelt ............... NO
    Groundwater ............ NO
    Flow Routing ........... YES
    Ponding Allowed ........ NO
    Water Quality .......... NO
  Infiltration Method ...... HORTON
  Flow Routing Method ...... DYNWAVE
  Surcharge Method ......... EXTRAN
  Starting Date ............ 08/28/2015 08:00:00
  Ending Date .............. 08/28/2015 15:50:00
  Antecedent Dry Days ...... 8.0
  Report Time Step ......... 00:01:00
  Wet Time Step ............ 00:01:00
  Dry Time Step ............ 00:01:00
  Routing Time Step ........ 5.00 sec
  Variable Time Step ....... YES
  Maximum Trials ........... 8
  Number of Threads ........ 4
  Head Tolerance ........... 0.001500 m
  
  
  **************************        Volume         Depth
  Runoff Quantity Continuity     hectare-m            mm
  **************************     ---------       -------
  Total Precipitation ......         6.144        13.452
  Evaporation Loss .........         0.000         0.000
  Infiltration Loss ........         1.572         3.442
  Surface Runoff ...........         3.480         7.619
  Final Storage ............         1.093         2.393
  Continuity Error (%) .....        -0.016
  
  
  **************************        Volume        Volume
  Flow Routing Continuity        hectare-m      10^6 ltr
  **************************     ---------     ---------
  Dry Weather Inflow .......         0.616         6.165
  Wet Weather Inflow .......         3.479        34.790
  Groundwater Inflow .......         0.000         0.000
  RDII Inflow ..............         0.000         0.000
  External Inflow ..........         0.102         1.024
  External Outflow .........         1.400        13.998
  Flooding Loss ............         2.224        22.239
  Evaporation Loss .........         0.000         0.000
  Exfiltration Loss ........         0.000         0.000
  Initial Stored Volume ....         0.076         0.761
  Final Stored Volume ......         0.656         6.559
  Continuity Error (%) .....        -0.135
  
  
  *************************
  Highest Continuity Errors
  *************************
  Node HS02004842 (15.27%)
  Node YS02001884 (11.59%)
  Node YSB1171 (2.78%)
  Node HS02004817 (2.78%)
  Node HS02004901 (2.06%)
  
  
  ***************************
  Time-Step Critical Elements
  ***************************
  Link WS02006252WS02006251 (54.46%)
  Link 3 (37.08%)
  Link WS02006280WS02006229 (3.01%)
  
  
  ********************************
  Highest Flow Instability Indexes
  ********************************
  Link WS02006113WS02006111 (46)
  Link YS02163601YS02164001 (42)
  Link YS02163301YS02001633 (41)
  Link YS02001629YS02163301 (40)
  Link YS02001619YS02001622 (40)
  
  
  *************************
  Routing Time Step Summary
  *************************
  Minimum Time Step           :     0.50 sec
  Average Time Step           :     0.91 sec
  Maximum Time Step           :     5.00 sec
  Percent in Steady State     :    -0.00
  Average Iterations per Step :     4.60
  Percent Not Converging      :    20.01
  
  
  ***************************
  Subcatchment Runoff Summary
  ***************************
  
  ------------------------------------------------------------------------------------------------------------------------------
                            Total      Total      Total      Total     Imperv       Perv      Total       Total     Peak  Runoff
                           Precip      Runon       Evap      Infil     Runoff     Runoff     Runoff      Runoff   Runoff   Coeff
  Subcatchment                 mm         mm         mm         mm         mm         mm         mm    10^6 ltr      LPS
  ------------------------------------------------------------------------------------------------------------------------------
  sub0                      13.45       0.00       0.00       0.89      11.25       0.05      11.30        0.01     3.67   0.840
  sub1                      13.45       0.00       0.00       1.45      10.71       0.03      10.74        0.07    24.31   0.799
  sub2                      13.45       0.00       0.00       4.95       7.56       0.02       7.58        0.07    22.93   0.564
  sub3                      13.45       0.00       0.00       4.96       7.52       0.02       7.54        0.17    51.30   0.560
  sub4                      13.45       0.00       0.00       1.46      10.54       0.02      10.56        0.22    61.94   0.785
  sub5                      13.45       0.00       0.00       0.91      11.19       0.03      11.22        0.13    43.21   0.834
  sub7                      13.45       0.00       0.00       1.17      10.98       0.04      11.03        0.04    13.69   0.820
  sub8                      13.45       0.00       0.00       1.17      10.97       0.04      11.01        0.07    25.15   0.819
  sub9                      13.45       0.00       0.00       1.17      10.97       0.04      11.01        0.05    18.81   0.818
  sub10                     13.45       0.00       0.00       1.04      11.08       0.03      11.11        0.12    42.29   0.826
  sub11                     13.45       0.00       0.00       1.04      11.10       0.04      11.14        0.13    46.68   0.828
  sub12                     13.45       0.00       0.00       1.69      10.51       0.06      10.58        0.09    35.94   0.786
  sub14                     13.45       0.00       0.00       1.17      10.97       0.04      11.01        0.10    37.02   0.818
  sub15                     13.45       0.00       0.00       4.00       8.43       0.04       8.47        0.15    51.03   0.630
  sub16                     13.45       0.00       0.00       4.38       8.09       0.06       8.15        0.09    32.58   0.606
  sub17                     13.45       0.00       0.00       4.25       8.21       0.06       8.27        0.07    26.73   0.615
  sub22                     13.45       0.00       0.00       5.74       6.88       0.04       6.92        0.44   159.06   0.514
  sub23                     13.45       0.00       0.00       4.93       7.60       0.05       7.65        0.36   133.95   0.569
  sub60                     13.45       0.00       0.00       1.61       8.73       0.00       8.74        2.65   387.96   0.649
  sub61                     13.45       0.00       0.00       2.28       8.88       0.00       8.88        2.74   483.52   0.660
  sub62                     13.45       0.00       0.00       1.07       9.65       0.00       9.66        2.97   496.42   0.718
  sub63                     13.45       0.00       0.00       3.90       7.77       0.00       7.77        2.35   446.68   0.578
  sub64                     13.45       0.00       0.00       2.01       8.38       0.00       8.38        2.55   368.35   0.623
  sub65                     13.45       0.00       0.00       1.75       8.52       0.00       8.52        2.62   373.60   0.634
  sub66                     13.45       0.00       0.00       3.90       7.19       0.00       7.19        2.21   337.96   0.535
  sub67                     13.45       0.00       0.00       1.07      10.19       0.01      10.19        3.15   622.58   0.758
  sub68                     13.45       0.00       0.00       1.88       9.34       0.01       9.34        2.87   531.38   0.694
  sub69                     13.45       0.00       0.00       2.01       9.68       0.01       9.69        2.26   503.32   0.720
  sub70                     13.45       9.89       0.00       7.67      12.93       0.26      13.20        3.02   423.72   0.565
  sub71                     13.45       0.00       0.00       1.07       9.40       0.00       9.40        2.22   347.35   0.699
  sub72                     13.45       0.00       0.00       0.94       7.49       0.00       7.50        1.53   163.23   0.557
  sub73                     13.45      12.84       0.00       8.67      14.26       0.27      14.53        3.41   375.92   0.552
  sub74                     13.45       0.00       0.00      10.09       2.88       0.00       2.89        1.15   273.25   0.215
  
  
  ******************
  Node Depth Summary
  ******************
  
  ---------------------------------------------------------------------------------
                                 Average  Maximum  Maximum  Time of Max    Reported
                                   Depth    Depth      HGL   Occurrence   Max Depth
  Node                 Type       Meters   Meters   Meters  days hr:min      Meters
  ---------------------------------------------------------------------------------
  WS02001211           JUNCTION     0.57     0.64     5.48     0  02:30        0.64
  WS02001212           JUNCTION     0.31     0.38     5.44     0  02:31        0.38
  WS02001213           JUNCTION     0.54     0.68     5.44     0  03:07        0.68
  WS02003069           JUNCTION     0.38     0.56     5.15     0  03:06        0.56
  WS02003072           JUNCTION     0.45     0.62     4.99     0  03:07        0.62
  WS02003073           JUNCTION     0.27     0.38     4.45     0  03:08        0.38
  WS02003060           JUNCTION     0.34     0.50     5.43     0  03:06        0.50
  WS02003066           JUNCTION     0.23     0.35     5.91     0  03:05        0.35
  WS02003059           JUNCTION     0.61     0.75     5.43     0  03:06        0.75
  WS02003067           JUNCTION     0.56     0.78     6.10     0  03:05        0.78
  WS02004401           JUNCTION     0.66     1.09     7.09     0  03:03        1.09
  WS02004402           JUNCTION     0.69     1.09     7.05     0  03:03        1.09
  WS02004403           JUNCTION     0.71     1.09     7.02     0  03:03        1.08
  WS02004404           JUNCTION     0.79     1.14     6.99     0  03:03        1.14
  WS02004406           JUNCTION     0.79     1.09     6.92     0  03:03        1.09
  WS02004409           JUNCTION     0.47     0.84     6.61     0  03:04        0.83
  WS02004410           JUNCTION     0.49     0.84     6.56     0  03:04        0.84
  WS02004411           JUNCTION     0.51     0.83     6.51     0  03:04        0.83
  WS02004412           JUNCTION     0.52     0.82     6.46     0  03:04        0.82
  WS02004413           JUNCTION     0.68     0.96     6.43     0  03:05        0.96
  WS02004405           JUNCTION     0.78     1.12     6.97     0  03:03        1.12
  WS02006109           JUNCTION     0.74     1.23     7.85     0  03:02        1.22
  WS02006110           JUNCTION     0.73     1.09     7.67     0  03:02        1.09
  WS02006111           JUNCTION     0.22     0.57     7.27     0  03:03        0.56
  WS02006112           JUNCTION     0.83     1.36     7.24     0  03:03        1.35
  WS02006113           JUNCTION     0.33     0.59     7.48     0  03:03        0.59
  WS02006115           JUNCTION     0.55     1.04     7.18     0  03:03        1.04
  WS02006116           JUNCTION     0.63     1.10     7.14     0  03:03        1.10
  WS02006230           JUNCTION     0.70     1.34     8.08     0  03:02        1.33
  WS02006231           JUNCTION     0.46     0.98     8.10     0  03:02        0.97
  WS02006232           JUNCTION     0.59     1.06     8.10     0  03:02        1.05
  WS02006234           JUNCTION     0.50     0.95     8.11     0  03:02        0.94
  WS02006235           JUNCTION     0.53     0.96     8.12     0  03:02        0.95
  WS02006238           JUNCTION     0.55     0.98     8.13     0  03:02        0.97
  WS02006240           JUNCTION     0.43     0.84     8.14     0  03:02        0.84
  WS02006242           JUNCTION     0.48     0.88     8.15     0  03:02        0.88
  WS02006243           JUNCTION     0.36     0.75     8.17     0  03:02        0.75
  WS02006245           JUNCTION     0.34     0.70     8.19     0  03:00        0.70
  WS02006247           JUNCTION     0.36     0.70     8.20     0  03:00        0.70
  WS02006248           JUNCTION     0.31     0.62     8.21     0  03:00        0.62
  WS02006249           JUNCTION     0.34     0.62     8.21     0  03:00        0.62
  WS02006239           JUNCTION     0.50     0.92     8.13     0  03:02        0.91
  WS02006251           JUNCTION     0.33     0.60     8.27     0  03:00        0.60
  WS02006252           JUNCTION     0.27     0.35     8.59     0  05:20        0.35
  WS02006253           JUNCTION     0.35     0.63     8.28     0  03:00        0.63
  WS02006256           JUNCTION     0.99     1.15     8.09     0  00:00        1.15
  WS02004138           JUNCTION     0.12     0.14     7.39     0  00:00        0.14
  WS02004407           JUNCTION     0.21     0.36     6.67     0  03:03        0.36
  WS02006228           JUNCTION     0.74     1.35     8.00     0  03:02        1.34
  WS02006229           JUNCTION     0.72     1.38     8.07     0  03:02        1.37
  WS02006280           JUNCTION     0.07     0.24     8.52     0  03:02        0.24
  WS02006284           JUNCTION     0.37     0.63     9.02     0  03:02        0.62
  WS02006287           JUNCTION     0.11     0.37     9.32     0  03:02        0.37
  WSF200               JUNCTION     0.21     0.37     5.60     0  03:05        0.37
  HS02004901           JUNCTION     0.13     0.35    10.17     0  03:01        0.35
  HS02004881           JUNCTION     0.01     0.05     9.08     0  03:01        0.05
  HS02004876           JUNCTION     0.05     0.15     9.18     0  03:01        0.15
  HS02004870           JUNCTION     0.02     0.09     9.37     0  03:01        0.09
  HS02004862           JUNCTION     0.02     0.10     9.49     0  03:01        0.10
  HS02004856           JUNCTION     0.08     0.15     9.57     0  03:01        0.15
  HS02004852           JUNCTION     0.01     0.07     9.58     0  03:02        0.07
  HS02004848           JUNCTION     0.01     0.06     9.67     0  03:01        0.06
  HS02004842           JUNCTION     0.33     0.40     9.67     0  03:01        0.40
  HS02004837           JUNCTION     0.03     0.09     9.67     0  03:01        0.09
  HS02004830           JUNCTION     0.04     0.10     9.57     0  03:01        0.10
  HS02004824           JUNCTION     0.03     0.11     9.51     0  03:02        0.11
  HS02004817           JUNCTION     0.44     0.67     9.52     0  03:02        0.67
  HS02004807           JUNCTION     0.13     0.34     9.51     0  03:02        0.34
  HS02004802           JUNCTION     0.17     0.38     9.50     0  03:02        0.38
  HS02004799           JUNCTION     0.13     0.43     9.65     0  03:01        0.43
  HS02004792           JUNCTION     0.04     0.20     9.72     0  03:01        0.19
  HS02004788           JUNCTION     0.03     0.14    10.04     0  03:02        0.14
  HS02004785           JUNCTION     0.05     0.23    10.13     0  03:02        0.23
  HS02004777           JUNCTION     0.15     0.37    10.17     0  03:01        0.37
  HS02004770           JUNCTION     0.12     0.34    10.17     0  03:01        0.34
  HS02004480           JUNCTION     0.09     0.35     9.59     0  03:01        0.35
  HS02004479           JUNCTION     0.13     0.39     9.60     0  03:01        0.39
  HS02004478           JUNCTION     0.07     0.26     9.48     0  03:01        0.26
  YS02001745           JUNCTION     0.69     0.91     8.43     0  03:26        0.91
  YS02001748           JUNCTION     1.07     2.27     9.35     0  02:46        1.35
  YS02001751           JUNCTION     1.25     2.20     9.08     0  02:46        1.54
  YS02001754           JUNCTION     1.51     2.15     8.76     0  02:46        1.81
  YS02001762           JUNCTION     1.70     2.11     8.51     0  02:47        2.03
  YS02001765           JUNCTION     1.66     2.05     8.50     0  02:47        1.98
  YS02001767           JUNCTION     1.62     1.97     8.46     0  02:47        1.92
  YS02001770           JUNCTION     1.62     1.95     8.44     0  02:46        1.91
  YS02001774           JUNCTION     1.68     2.02     8.44     0  02:47        1.97
  YS02001779           JUNCTION     1.43     1.68     8.37     0  02:45        1.68
  YS02001882           JUNCTION     0.56     1.63     8.35     0  02:51        1.63
  YS02001884           JUNCTION     0.65     1.74     8.35     0  03:00        1.72
  YS02001759           JUNCTION     1.74     2.13     8.49     0  02:47        2.06
  YS02001887           JUNCTION     0.73     1.81     8.35     0  03:00        1.81
  YS02001890           JUNCTION     0.76     1.81     8.32     0  02:50        1.81
  YS02001898           JUNCTION     0.52     1.57     8.30     0  02:50        1.56
  YS02001901           JUNCTION     0.64     1.68     8.29     0  02:51        1.67
  YS02001904           JUNCTION     0.62     1.64     8.27     0  02:51        1.64
  YS02001907           JUNCTION     0.95     1.96     8.25     0  02:50        1.96
  YS02001910           JUNCTION     0.74     1.79     8.29     0  02:52        1.78
  YS02001915           JUNCTION     0.54     1.60     8.32     0  02:52        1.59
  YS02001918           JUNCTION     0.29     1.29     8.36     0  02:52        1.29
  YS02001619           JUNCTION     1.22     1.61     8.54     0  02:43        1.48
  YS02001629           JUNCTION     1.57     1.85     8.40     0  02:42        1.84
  YS02001641           JUNCTION     1.67     1.98     8.41     0  02:46        1.93
  YS02001644           JUNCTION     1.67     1.92     8.35     0  02:46        1.92
  YS02001652           JUNCTION     1.52     2.16     8.76     0  03:00        1.91
  YS02001655           JUNCTION     1.28     2.20     9.05     0  02:56        1.82
  YS02001920           JUNCTION     0.39     1.38     8.38     0  02:52        1.36
  YS02001923           JUNCTION     0.22     1.14     8.40     0  02:52        1.13
  YS02001926           JUNCTION     0.28     0.98     8.42     0  02:52        0.97
  YS02001929           JUNCTION     0.16     0.75     8.45     0  02:52        0.71
  YS02001658           JUNCTION     1.02     2.30     9.44     0  02:56        1.84
  YS02001661           JUNCTION     0.80     2.46     9.86     0  02:56        1.85
  YS02001664           JUNCTION     0.36     0.57     8.49     0  02:53        0.56
  YS02001622           JUNCTION     1.24     1.62     8.52     0  02:43        1.50
  YS02001633           JUNCTION     1.66     2.00     8.46     0  02:46        1.94
  YS02001649           JUNCTION     1.71     2.05     8.44     0  02:46        2.05
  YS02001757           JUNCTION     1.83     2.21     8.47     0  02:47        2.16
  YS02001895           JUNCTION     0.52     1.57     8.31     0  03:02        1.56
  YS02001625           JUNCTION     1.52     1.78     8.38     0  02:42        1.78
  YS02163301           JUNCTION     1.60     1.92     8.43     0  02:46        1.88
  YS02163601           JUNCTION     1.71     2.06     8.46     0  02:46        1.98
  YS02164001           JUNCTION     1.65     1.99     8.44     0  02:46        1.91
  YS02001647           JUNCTION     1.50     1.81     8.42     0  02:46        1.79
  YSB1154              JUNCTION     0.27     0.54     9.60     0  03:01        0.54
  YSB6556              JUNCTION     0.16     0.43     9.60     0  03:02        0.43
  YSB1174              JUNCTION     0.22     0.49     9.60     0  03:01        0.49
  YSB1171              JUNCTION     0.42     0.69     9.60     0  03:01        0.69
  YS02006553           JUNCTION     0.95     1.97     8.25     0  03:00        1.96
  YS02006561           JUNCTION     0.32     1.10     7.76     0  02:50        1.08
  YS02006556           JUNCTION     0.92     1.93     8.24     0  02:59        1.93
  YS02006558           JUNCTION     0.96     1.97     8.24     0  03:00        1.97
  YS02001783           JUNCTION     0.60     1.49     7.64     0  02:50        1.47
  YS02001784           JUNCTION     0.63     1.44     7.51     0  02:50        1.41
  YS02001786           JUNCTION     0.60     1.62     7.65     0  02:30        1.27
  YS02001788           JUNCTION     0.56     1.54     7.52     0  02:30        1.13
  YS02001790           JUNCTION     0.75     1.96     7.60     0  02:29        1.29
  YS02001791           JUNCTION     0.80     1.71     7.18     0  02:29        1.28
  YS02001793           JUNCTION     1.19     2.91     7.74     0  02:27        1.80
  WS02004139           JUNCTION     0.50     0.58     5.49     0  02:30        0.58
  WSC                  OUTFALL      0.26     0.38     1.05     0  03:08        0.38
  3                    OUTFALL      0.07     0.15     6.15     0  03:00        0.15
  4                    OUTFALL      0.01     0.12     7.12     0  03:00        0.12
  5                    OUTFALL      0.00     0.00     5.00     0  00:00        0.00
  JK-storage           STORAGE      4.36     5.80     6.60     0  02:29        5.80
  CC-storage           STORAGE      1.06     1.42     8.42     0  03:27        1.42
  XR-storage           STORAGE      7.58     7.72     5.72     0  01:49        7.72
  
  
  *******************
  Node Inflow Summary
  *******************
  
  -------------------------------------------------------------------------------------------------
                                  Maximum  Maximum                  Lateral       Total        Flow
                                  Lateral    Total  Time of Max      Inflow      Inflow     Balance
                                   Inflow   Inflow   Occurrence      Volume      Volume       Error
  Node                 Type           LPS      LPS  days hr:min    10^6 ltr    10^6 ltr     Percent
  -------------------------------------------------------------------------------------------------
  WS02001211           JUNCTION      7.35   197.82     0  07:41       0.207        4.17       0.742
  WS02001212           JUNCTION      0.00   197.95     0  07:41           0        4.14       0.401
  WS02001213           JUNCTION      0.00   198.01     0  07:41           0        4.12       0.495
  WS02003069           JUNCTION      0.32   887.87     0  03:06     0.00902        11.6       0.237
  WS02003072           JUNCTION      0.00   887.71     0  03:07           0        11.6       0.295
  WS02003073           JUNCTION      1.82   889.51     0  03:07      0.0514        11.6       0.327
  WS02003060           JUNCTION     16.53   887.45     0  03:05       0.466        11.6       0.227
  WS02003066           JUNCTION      0.00   781.75     0  03:05           0        7.08       0.064
  WS02003059           JUNCTION      0.00   198.09     0  07:39           0        4.11       0.865
  WS02003067           JUNCTION      0.00   781.35     0  03:05           0        7.09       0.135
  WS02004401           JUNCTION      0.00   784.42     0  03:03           0        7.33       0.302
  WS02004402           JUNCTION      0.00   784.51     0  03:03           0        7.31       0.284
  WS02004403           JUNCTION      0.00   784.56     0  03:03           0        7.28       0.258
  WS02004404           JUNCTION      0.16   784.76     0  03:03     0.00457        7.27       0.194
  WS02004406           JUNCTION      0.00   784.82     0  03:03           0        7.24       0.472
  WS02004409           JUNCTION      0.00   784.62     0  03:03           0         7.2       0.237
  WS02004410           JUNCTION      0.00   783.12     0  03:04           0        7.18       0.266
  WS02004411           JUNCTION      0.00   782.07     0  03:04           0        7.16       0.272
  WS02004412           JUNCTION      0.00   781.51     0  03:04           0        7.14       0.292
  WS02004413           JUNCTION      0.00   781.30     0  03:04           0        7.12       0.431
  WS02004405           JUNCTION      0.04   784.80     0  03:03     0.00107        7.26       0.289
  WS02006109           JUNCTION      1.23   768.68     0  03:02      0.0347        7.38       0.269
  WS02006110           JUNCTION      0.00   768.76     0  03:02           0        7.36       0.275
  WS02006111           JUNCTION      0.00   766.12     0  03:02           0        7.33       0.066
  WS02006112           JUNCTION     26.73   783.81     0  03:03      0.0709         7.4       0.407
  WS02006113           JUNCTION      0.00   768.68     0  03:02           0        7.34       0.135
  WS02006115           JUNCTION      0.00   783.85     0  03:03           0        7.37       0.284
  WS02006116           JUNCTION      0.00   784.19     0  03:03           0        7.35       0.269
  WS02006230           JUNCTION     10.28   322.19     0  04:10        0.29        5.29       0.224
  WS02006231           JUNCTION      0.00   311.81     0  04:10           0        5.01       0.282
  WS02006232           JUNCTION      0.00   311.77     0  04:10           0        5.03       0.329
  WS02006234           JUNCTION      0.00   311.73     0  04:10           0        5.04       0.173
  WS02006235           JUNCTION      0.00   311.72     0  04:10           0        5.09       0.210
  WS02006238           JUNCTION      0.00   262.98     0  02:21           0         3.2       0.249
  WS02006240           JUNCTION      0.00   259.12     0  02:21           0         3.2       0.383
  WS02006242           JUNCTION      0.00   257.72     0  02:21           0         3.2       0.465
  WS02006243           JUNCTION      0.00   256.40     0  02:31           0        3.19      -0.068
  WS02006245           JUNCTION      0.00   257.54     0  02:31           0         3.2       0.413
  WS02006247           JUNCTION      0.00   258.71     0  02:32           0        3.21       0.211
  WS02006248           JUNCTION      0.00   259.89     0  02:32           0        3.21       0.055
  WS02006249           JUNCTION      0.00   324.39     0  03:00           0        3.36       0.411
  WS02006239           JUNCTION      0.00   261.23     0  02:20           0         3.2       0.332
  WS02006251           JUNCTION      0.08   325.48     0  03:00     0.00217        3.39       0.249
  WS02006252           JUNCTION      0.00   200.00     0  02:06           0        2.96       0.014
  WS02006253           JUNCTION      3.67   134.78     0  03:01     0.00915       0.426       1.031
  WS02006256           JUNCTION      0.00   306.56     0  03:00           0        4.24       0.071
  WS02004138           JUNCTION      0.00   190.00     0  00:00           0        3.99       0.099
  WS02004407           JUNCTION      0.00   784.86     0  03:03           0         7.2       0.107
  WS02006228           JUNCTION      0.00   767.64     0  03:02           0        7.36       0.207
  WS02006229           JUNCTION      0.00   767.57     0  03:02           0        7.37       0.168
  WS02006280           JUNCTION      0.00   611.97     0  03:02           0         2.1       0.003
  WS02006284           JUNCTION      0.10   611.07     0  03:02      0.0027         2.1       0.059
  WS02006287           JUNCTION      0.00   609.84     0  03:02           0         2.1       0.034
  WSF200               JUNCTION      0.00   781.87     0  03:05           0        7.07       0.063
  HS02004901           JUNCTION     32.58    32.58     0  03:01      0.0854      0.0856       2.107
  HS02004881           JUNCTION     13.69   131.68     0  03:01      0.0372       0.403       0.005
  HS02004876           JUNCTION     24.31   119.37     0  03:01      0.0714       0.367       0.153
  HS02004870           JUNCTION     25.15    96.63     0  03:01      0.0704       0.295       0.038
  HS02004862           JUNCTION     23.13    73.48     0  03:01      0.0763       0.225       0.080
  HS02004856           JUNCTION     18.81    51.87     0  03:01      0.0529        0.15       0.973
  HS02004852           JUNCTION      0.00    35.11     0  03:01           0      0.0975       0.061
  HS02004848           JUNCTION     51.30    51.30     0  03:01        0.17        0.17       0.030
  HS02004842           JUNCTION      0.00    15.11     0  03:01           0      0.0852      18.024
  HS02004837           JUNCTION     48.64    62.30     0  03:01       0.302       0.374       0.218
  HS02004830           JUNCTION      0.15    61.39     0  03:01     0.00423       0.364       0.341
  HS02004824           JUNCTION     61.99   121.76     0  03:01       0.222       0.584       0.093
  HS02004817           JUNCTION      0.60   117.99     0  03:02      0.0169       0.601       2.855
  HS02004807           JUNCTION     46.68   158.05     0  03:01       0.129       0.714       0.602
  HS02004802           JUNCTION      0.00   156.92     0  03:03           0       0.709       0.571
  HS02004799           JUNCTION     37.02   389.11     0  03:01       0.105        1.19       0.207
  HS02004792           JUNCTION    159.34   356.45     0  03:01       0.445        1.08       0.038
  HS02004788           JUNCTION     52.70   202.58     0  03:02       0.193       0.638       0.062
  HS02004785           JUNCTION      0.15   157.28     0  03:01     0.00423       0.447       0.112
  HS02004777           JUNCTION      0.03   160.02     0  03:01    0.000846       0.447       1.175
  HS02004770           JUNCTION    133.95   163.77     0  03:01       0.365       0.449       0.699
  HS02004480           JUNCTION      0.00   456.70     0  03:01           0         1.4       0.084
  HS02004479           JUNCTION      0.00    72.19     0  03:02           0       0.228       0.322
  HS02004478           JUNCTION      0.00   609.31     0  03:02           0         2.1       0.018
  YS02001745           JUNCTION    387.96   453.35     0  02:45        2.65        2.65       0.423
  YS02001748           JUNCTION      0.04   658.30     0  02:46     0.00127        2.64       0.843
  YS02001751           JUNCTION      0.01   398.83     0  03:01     0.00031        2.61       0.909
  YS02001754           JUNCTION      0.26   398.99     0  03:01     0.00733         2.6       0.956
  YS02001762           JUNCTION      0.00   380.10     0  02:54           0        1.94       1.096
  YS02001765           JUNCTION      0.00   380.22     0  02:54           0        1.94       1.262
  YS02001767           JUNCTION      0.54   380.02     0  02:54      0.0151        1.97       1.849
  YS02001770           JUNCTION    496.57   517.77     0  03:30        2.97        3.32       0.949
  YS02001774           JUNCTION      0.00   519.00     0  03:31           0        1.69       1.501
  YS02001779           JUNCTION      0.01   518.96     0  03:31    0.000141        1.66       0.926
  YS02001882           JUNCTION      0.00    29.07     0  02:46           0      0.0191      13.778
  YS02001884           JUNCTION      0.00    39.81     0  02:44           0      0.0544      13.115
  YS02001759           JUNCTION    483.56   766.26     0  02:55        2.74         4.3       0.535
  YS02001887           JUNCTION    623.03   623.03     0  03:01        3.16        3.19       0.275
  YS02001890           JUNCTION      0.00   623.21     0  03:01           0        3.14       0.298
  YS02001898           JUNCTION      0.00   517.42     0  03:07           0        3.09       0.114
  YS02001901           JUNCTION      0.00   517.59     0  03:07           0        3.09       0.226
  YS02001904           JUNCTION      0.00   517.34     0  03:07           0        3.08       0.206
  YS02001907           JUNCTION      0.00  1058.10     0  03:01           0        6.88       0.348
  YS02001910           JUNCTION      0.00   541.59     0  03:01           0        3.81       0.316
  YS02001915           JUNCTION    347.37   541.53     0  03:01        2.22        3.85       0.165
  YS02001918           JUNCTION      0.00   271.80     0  02:52           0        1.65       0.122
  YS02001619           JUNCTION    337.96   337.96     0  03:01        2.21        2.21       0.555
  YS02001629           JUNCTION      0.00   222.27     0  02:49           0        1.57       1.865
  YS02001641           JUNCTION      0.00   467.69     0  02:50           0        4.09       0.517
  YS02001644           JUNCTION    368.39  1262.41     0  03:29        2.55        9.94       0.264
  YS02001652           JUNCTION      0.00   484.35     0  03:01           0        2.31       1.010
  YS02001655           JUNCTION      0.15   483.89     0  03:01     0.00434        2.33       1.077
  YS02001920           JUNCTION      2.87   271.86     0  02:52      0.0809        1.64       0.184
  YS02001923           JUNCTION      0.04   258.47     0  02:53     0.00106        1.54       0.052
  YS02001926           JUNCTION      0.05   193.07     0  02:53     0.00147        1.53       0.222
  YS02001929           JUNCTION    163.23   163.23     0  03:01        1.53        1.53       0.039
  YS02001658           JUNCTION      0.00   609.19     0  02:42           0        2.36       0.990
  YS02001661           JUNCTION      0.00   736.70     0  02:55           0        2.99      -0.166
  YS02001664           JUNCTION    446.68   446.68     0  03:01        2.35           3       0.232
  YS02001622           JUNCTION      0.00   338.27     0  03:01           0        2.19       1.469
  YS02001633           JUNCTION    373.80   467.61     0  02:50        2.63        4.15       0.779
  YS02001649           JUNCTION      0.00   989.38     0  02:51           0        5.71       0.655
  YS02001757           JUNCTION      0.00  1935.28     0  02:52           0        8.94       1.044
  YS02001895           JUNCTION      0.00   517.31     0  03:07           0        3.09       0.164
  YS02001625           JUNCTION      0.00   338.05     0  03:01           0        2.16       1.809
  YS02163301           JUNCTION      0.00   222.59     0  02:49           0        1.55       1.570
  YS02163601           JUNCTION      0.11   467.55     0  02:50      0.0031        4.11       0.736
  YS02164001           JUNCTION      0.00   467.53     0  02:50           0        4.09       0.492
  YS02001647           JUNCTION      0.00   712.74     0  02:50           0         4.8       0.589
  YSB1154              JUNCTION     43.21    43.21     0  03:01       0.127       0.128       1.144
  YSB6556              JUNCTION      0.00    41.77     0  03:01           0       0.129       0.980
  YSB1174              JUNCTION     35.94    35.94     0  03:01      0.0924      0.0931       1.403
  YSB1171              JUNCTION      0.00    73.33     0  03:01           0       0.227       2.865
  YS02006553           JUNCTION      0.00   672.51     0  03:32           0        6.12       0.254
  YS02006561           JUNCTION      0.00   969.24     0  03:00           0        8.97       0.008
  YS02006556           JUNCTION      0.00   672.37     0  03:32           0        6.13       0.186
  YS02006558           JUNCTION    532.26   969.55     0  03:00         2.9           9       0.060
  YS02001783           JUNCTION      0.00   969.22     0  03:00           0        8.97       0.027
  YS02001784           JUNCTION      1.06   970.25     0  03:00      0.0299           9       0.043
  YS02001786           JUNCTION      0.06   970.23     0  03:00     0.00159        8.99       0.041
  YS02001788           JUNCTION      0.07   970.46     0  03:01       0.002        8.99       0.024
  YS02001790           JUNCTION      0.15   970.59     0  03:01     0.00437        8.99       0.027
  YS02001791           JUNCTION      0.00   970.57     0  03:00           0        8.99       0.016
  YS02001793           JUNCTION      0.00   970.60     0  03:00           0        8.99       0.004
  WS02004139           JUNCTION      0.32   191.11     0  00:00     0.00905           4       0.804
  WSC                  OUTFALL       0.00   889.41     0  03:08           0        11.5       0.000
  3                    OUTFALL       0.00   306.58     0  03:00           0        2.32       0.000
  4                    OUTFALL       0.00   132.44     0  03:00           0       0.136       0.000
  5                    OUTFALL       0.00     0.00     0  00:00           0           0       0.000 ltr
  JK-storage           STORAGE       0.00   970.72     0  03:01           0        9.14      -0.303
  CC-storage           STORAGE       0.00  1935.31     0  02:52           0        6.87       0.946
  XR-storage           STORAGE     849.17   849.17     0  03:01        10.2        10.8       0.001
  
  
  **********************
  Node Surcharge Summary
  **********************
  
  Surcharging occurs when water rises above the top of the highest conduit.
  ---------------------------------------------------------------------
                                               Max. Height   Min. Depth
                                   Hours       Above Crown    Below Rim
  Node                 Type      Surcharged         Meters       Meters
  ---------------------------------------------------------------------
  WS02004401           JUNCTION        0.28          0.089        1.571
  WS02004402           JUNCTION        0.33          0.094        1.646
  WS02004403           JUNCTION        0.34          0.085        1.945
  WS02004404           JUNCTION        0.62          0.139        2.641
  WS02004406           JUNCTION        0.52          0.093        2.357
  WS02004405           JUNCTION        0.57          0.121        2.679
  WS02006109           JUNCTION        1.21          0.414        1.406
  WS02006110           JUNCTION        0.89          0.179        1.671
  WS02006112           JUNCTION        1.04          0.359        1.321
  WS02006115           JUNCTION        0.08          0.027        2.223
  WS02006116           JUNCTION        0.11          0.036        2.254
  WS02006230           JUNCTION        0.56          0.257        1.313
  WS02006231           JUNCTION        0.60          0.266        1.264
  WS02006232           JUNCTION        1.05          0.364        1.116
  WS02006234           JUNCTION        0.63          0.232        1.008
  WS02006235           JUNCTION        0.67          0.246        1.044
  WS02006238           JUNCTION        0.68          0.262        1.168
  WS02006240           JUNCTION        0.54          0.135        1.255
  WS02006242           JUNCTION        0.58          0.155        0.665
  WS02006243           JUNCTION        0.24          0.040        0.730
  WS02006239           JUNCTION        0.59          0.177        1.113
  WS02006228           JUNCTION        1.20          0.515        1.685
  YS02001748           JUNCTION        5.03          1.190        0.000
  YS02001751           JUNCTION        5.13          1.200        0.000
  YS02001754           JUNCTION        5.29          1.104        0.046
  YS02001762           JUNCTION        5.51          1.106        0.044
  YS02001765           JUNCTION        5.49          1.052        0.048
  YS02001767           JUNCTION        5.47          0.974        0.056
  YS02001770           JUNCTION        5.45          0.920        0.000
  YS02001774           JUNCTION        5.50          1.020        0.030
  YS02001779           JUNCTION        5.28          0.680        0.000
  YS02001882           JUNCTION        1.04          0.633        0.197
  YS02001884           JUNCTION        1.08          0.675        0.195
  YS02001759           JUNCTION        5.54          1.129        0.081
  YS02001887           JUNCTION        1.16          0.760        0.190
  YS02001890           JUNCTION        1.19          0.760        0.000
  YS02001898           JUNCTION        1.00          0.538        0.202
  YS02001901           JUNCTION        1.13          0.678        0.192
  YS02001904           JUNCTION        1.10          0.640        0.210
  YS02001907           JUNCTION        1.65          0.950        0.000
  YS02001910           JUNCTION        1.24          0.788        0.312
  YS02001915           JUNCTION        1.03          0.605        0.395
  YS02001918           JUNCTION        0.79          0.292        0.518
  YS02001619           JUNCTION        5.15          0.610        0.000
  YS02001629           JUNCTION        5.15          0.470        0.000
  YS02001641           JUNCTION        5.50          0.977        0.123
  YS02001644           JUNCTION        5.50          0.920        0.000
  YS02001652           JUNCTION        5.30          1.130        0.000
  YS02001655           JUNCTION        5.15          1.200        0.000
  YS02001920           JUNCTION        0.83          0.376        0.764
  YS02001658           JUNCTION        5.05          1.300        0.000
  YS02001661           JUNCTION        0.25          1.390        0.000
  YS02001622           JUNCTION        5.16          0.620        0.000
  YS02001633           JUNCTION        5.48          0.983        0.077
  YS02001649           JUNCTION        5.52          1.050        0.000
  YS02001757           JUNCTION        5.62          1.207        0.003
  YS02001895           JUNCTION        1.02          0.567        0.183
  YS02001625           JUNCTION        5.34          0.780        0.000
  YS02163301           JUNCTION        5.46          0.918        0.112
  YS02163601           JUNCTION        5.52          1.060        0.020
  YS02164001           JUNCTION        5.49          0.985        0.115
  YS02001647           JUNCTION        5.31          0.814        0.086
  YS02006553           JUNCTION        1.72          0.969        0.221
  YS02006561           JUNCTION        0.92          0.303        0.847
  YS02006556           JUNCTION        1.44          0.891        0.459
  YS02006558           JUNCTION        1.41          0.874        0.526
  YS02001783           JUNCTION        1.65          0.695        0.905
  YS02001784           JUNCTION        1.68          0.638        0.852
  YS02001786           JUNCTION        1.65          0.821        0.609
  YS02001788           JUNCTION        1.62          0.741        0.739
  YS02001790           JUNCTION        4.02          1.157        0.000
  YS02001791           JUNCTION        4.08          0.913        1.007
  YS02001793           JUNCTION        4.20          1.912        0.688
  
  
  *********************
  Node Flooding Summary
  *********************
  
  Flooding refers to all water that overflows a node, whether it ponds or not.
  --------------------------------------------------------------------------
                                                             Total   Maximum
                                 Maximum   Time of Max       Flood    Ponded
                        Hours       Rate    Occurrence      Volume     Depth
  Node                 Flooded       LPS   days hr:min    10^6 ltr    Meters
  --------------------------------------------------------------------------
  YS02001748              0.01    365.29      0  02:46       0.001     0.000
  YS02001751              0.01     48.37      0  02:46       0.000     0.000
  YS02001770              0.01      7.80      0  02:47       0.000     0.000
  YS02001779              3.08    518.81      0  03:31       1.644     0.000
  YS02001890              0.23    106.99      0  03:01       0.038     0.000
  YS02001907              0.66    618.55      0  03:01       0.745     0.000
  YS02001619              0.01     14.97      0  02:45       0.000     0.000
  YS02001629              0.01     33.99      0  02:43       0.000     0.000
  YS02001644              4.73   1261.25      0  03:29       8.421     0.000
  YS02001652              0.01      6.25      0  03:00       0.000     0.000
  YS02001655              0.01     12.73      0  02:56       0.000     0.000
  YS02001658              0.01      9.54      0  02:58       0.000     0.000
  YS02001661              0.01    139.06      0  02:58       0.000     0.000
  YS02001622              0.01     16.72      0  02:43       0.000     0.000
  YS02001649              0.07     45.17      0  02:58       0.003     0.000
  YS02001625              1.15    317.80      0  03:01       0.556     0.000
  YS02001790              0.01    251.68      0  02:29       0.000     0.000
  JK-storage              3.50    965.79      0  03:10       4.940     0.000
  XR-storage              6.01    754.13      0  03:01       5.890     0.000
  
  
  **********************
  Storage Volume Summary
  **********************
  
  --------------------------------------------------------------------------------------------------
                         Average     Avg  Evap Exfil       Maximum     Max    Time of Max    Maximum
                          Volume    Pcnt  Pcnt  Pcnt        Volume    Pcnt     Occurrence    Outflow
  Storage Unit           1000 m3    Full  Loss  Loss       1000 m3    Full    days hr:min        LPS
  --------------------------------------------------------------------------------------------------
  JK-storage               0.219      75     0     0         0.291     100       0  02:29     300.00
  CC-storage               2.967      19     0     0         3.950      25       0  03:27     200.00
  XR-storage               0.910      98     0     0         0.926     100       0  01:49     190.00
  
  
  ***********************
  Outfall Loading Summary
  ***********************
  
  -----------------------------------------------------------
                         Flow       Avg       Max       Total
                         Freq      Flow      Flow      Volume
  Outfall Node           Pcnt       LPS       LPS    10^6 ltr
  -----------------------------------------------------------
  WSC                   99.99    463.48    889.41      11.539
  3                     74.05    145.46    306.58       2.323
  4                     10.20     67.85    132.44       0.136
  5                      0.00      0.00      0.00       0.000
  -----------------------------------------------------------
  System                46.06    676.79   1258.24      13.998
  
  
  ********************
  Link Flow Summary
  ********************
  
  -----------------------------------------------------------------------------
                                 Maximum  Time of Max   Maximum    Max/    Max/
                                  |Flow|   Occurrence   |Veloc|    Full    Full
  Link                 Type          LPS  days hr:min     m/sec    Flow   Depth
  -----------------------------------------------------------------------------
  WS02003066WSF200     CONDUIT    781.87     0  03:05      3.04    0.13    0.28
  WS02006287WS02006284 CONDUIT    610.98     0  03:02      2.31    0.28    0.37
  WS02006284WS02006280 CONDUIT    611.97     0  03:02      2.55    0.26    0.35
  WS02006280WS02006229 CONDUIT    612.09     0  03:02      4.12    0.13    0.24
  WS02006229WS02006228 CONDUIT    767.64     0  03:02      1.53    2.54    1.00
  WS02006256WS02006235 CONDUIT    166.25     0  00:01      2.58    1.76    1.00
  WS02006253WS02006251 CONDUIT    138.81     0  03:01      0.46    0.42    0.87
  WS02006252WS02006251 CONDUIT    200.34     0  03:50      1.97    0.74    0.76
  WS02006251WS02006249 CONDUIT    324.39     0  03:00      0.97    0.94    0.87
  WS02006249WS02006248 CONDUIT    259.89     0  02:32      1.06    1.42    0.87
  WS02006248WS02006247 CONDUIT    258.71     0  02:32      1.03    0.56    0.93
  WS02006247WS02006245 CONDUIT    257.54     0  02:31      1.00    2.04    0.99
  WS02006245WS02006243 CONDUIT    256.40     0  02:31      1.09    0.76    1.00
  WS02006243WS02006242 CONDUIT    257.72     0  02:21      0.90    0.55    1.00
  WS02006242WS02006240 CONDUIT    259.12     0  02:21      0.79    1.03    1.00
  WS02006240WS02006239 CONDUIT    261.23     0  02:20      0.87    0.82    1.00
  WS02006239WS02006238 CONDUIT    262.98     0  02:21      0.77    0.84    1.00
  WS02006238WS02006235 CONDUIT    262.78     0  02:20      1.25    0.59    1.00
  WS02006235WS02006234 CONDUIT    311.73     0  04:10      0.96    3.29    1.00
  WS02006234WS02006232 CONDUIT    311.77     0  04:10      1.13    0.63    1.00
  WS02006232WS02006231 CONDUIT    311.81     0  04:10      0.94    0.65    1.00
  WS02006231WS02006230 CONDUIT    311.91     0  04:10      1.29    4.73    1.00
  WS02006230WS02006229 CONDUIT    322.41     0  04:10      0.86    7.18    1.00
  WS02006228WS02006109 CONDUIT    767.45     0  03:02      1.53    3.35    1.00
  WS02006116WS02004401 CONDUIT    784.42     0  03:03      1.00    1.08    1.00
  WS02006115WS02006116 CONDUIT    784.19     0  03:03      1.00    1.01    1.00
  WS02006113WS02006111 CONDUIT    766.12     0  03:02      2.59    0.92    0.72
  WS02006112WS02006115 CONDUIT    783.85     0  03:03      1.00    0.46    1.00
  WS02006111WS02006112 CONDUIT    765.95     0  03:03      1.72    0.36    0.85
  WS02006110WS02006113 CONDUIT    768.68     0  03:02      1.66    0.70    0.87
  WS02006109WS02006110 CONDUIT    768.76     0  03:02      1.53    1.48    1.00
  WS02004411WS02004412 CONDUIT    781.51     0  03:04      1.13    1.11    0.83
  WS02004401WS02004402 CONDUIT    784.51     0  03:03      1.00    0.94    1.00
  WS02004413WS02003067 CONDUIT    781.35     0  03:05      1.37    0.33    0.68
  WS02004412WS02004413 CONDUIT    781.30     0  03:04      1.06    0.52    0.89
  WS02004410WS02004411 CONDUIT    782.07     0  03:04      1.12    1.07    0.83
  WS02004409WS02004410 CONDUIT    783.12     0  03:04      1.12    1.01    0.84
  WS02004407WS02004409 CONDUIT    784.62     0  03:03      1.60    0.28    0.60
  WS02004406WS02004407 CONDUIT    784.86     0  03:03      1.38    0.35    0.68
  WS02004405WS02004406 CONDUIT    784.82     0  03:03      1.00    1.55    1.00
  WS02004404WS02004405 CONDUIT    784.77     0  03:03      1.00    7.69    1.00
  WS02004403WS02004404 CONDUIT    784.59     0  03:03      1.00    0.57    1.00
  WS02004402WS02004403 CONDUIT    784.56     0  03:03      1.00    1.13    1.00
  WS02004139WS02001211 CONDUIT    190.47     0  07:41      0.69    0.24    0.47
  WS02004138WS02004139 CONDUIT    190.79     0  00:00      2.94    0.04    0.33
  WS02003067WS02003066 CONDUIT    781.75     0  03:05      1.49    0.25    0.47
  WS02001213WS02003059 CONDUIT    198.09     0  07:39      0.65    0.33    0.70
  WS02001212WS02001213 CONDUIT    198.01     0  07:41      1.03    0.31    0.37
  WS02001211WS02001212 CONDUIT    197.95     0  07:41      0.54    0.15    0.51
  WS02003072WS02003073 CONDUIT    887.68     0  03:07      1.69    1.92    0.47
  WS02003069WS02003072 CONDUIT    887.71     0  03:07      1.59    0.43    0.49
  WS02003060WS02003069 CONDUIT    887.55     0  03:06      1.84    0.35    0.44
  WS02003059WS02003060 CONDUIT    201.88     0  03:22      0.67    0.13    0.62
  HS02004901HS02004770 CONDUIT     32.24     0  03:01      0.09    0.12    0.50
  HS02004876HS02004881 CONDUIT    119.33     0  03:01      1.17    1.27    0.15
  HS02004870HS02004876 CONDUIT     96.14     0  03:01      0.79    0.06    0.17
  HS02004842HS02004848 CONDUIT     15.11     0  03:01      0.07    0.01    0.33
  HS02004837HS02004842 CONDUIT     16.10     0  03:03      0.41    0.01    0.34
  HS02004830HS02004837 CONDUIT     61.24     0  03:01      0.66    0.06    0.13
  HS02004824HS02004830 CONDUIT     60.79     0  03:01      0.63    0.08    0.15
  HS02004817HS02004824 CONDUIT    117.39     0  03:02      0.30    0.05    0.56
  HS02004770HS02004777 CONDUIT    159.99     0  03:01      0.45    0.29    0.51
  HS02004799HS02004480 CONDUIT    387.38     0  03:01      1.00    0.49    0.56
  HS02004792HS02004799 CONDUIT    353.07     0  03:01      1.12    0.22    0.45
  HS02004788HS02004792 CONDUIT    202.14     0  03:02      1.22    0.13    0.24
  HS02004785HS02004788 CONDUIT    156.69     0  03:02      0.85    1.18    0.26
  HS02004777HS02004785 CONDUIT    157.13     0  03:01      0.53    0.19    0.42
  HS02004480HS02004478 CONDUIT    456.76     0  03:01      1.47    1.92    0.44
  HS02004479HS02004480 CONDUIT     74.07     0  03:02      0.22    0.07    0.53
  HS02004862HS02004870 CONDUIT     73.11     0  03:01      0.77    0.08    0.14
  HS02004848HS02004852 CONDUIT     35.11     0  03:01      0.52    0.04    0.10
  HS02004856HS02004862 CONDUIT     51.23     0  03:01      0.58    0.05    0.13
  HS02004852HS02004856 CONDUIT     35.03     0  03:02      0.32    0.04    0.16
  HS02004802HS02004478 CONDUIT    160.69     0  03:04      0.54    0.14    0.45
  HS02004478WS02006287 CONDUIT    609.84     0  03:02      2.03    0.17    0.33
  HS02004817HS02004807 CONDUIT    120.81     0  03:04      0.24    0.07    0.73
  HS02004807HS02004802 CONDUIT    156.92     0  03:03      0.45    0.30    0.51
  YS02001759YS02001757 CONDUIT    766.06     0  02:55      0.98    0.54    1.00
  YS02001762YS02001759 CONDUIT    380.05     0  02:54      0.48    0.44    1.00
  YS02001765YS02001762 CONDUIT    380.10     0  02:54      0.48    0.36    1.00
  YS02001770YS02001767 CONDUIT    379.48     0  02:54      0.48    1.50    1.00
  YS02001774YS02001770 CONDUIT    519.00     0  03:31      0.66    0.33    1.00
  YS02001779YS02001774 CONDUIT    518.96     0  03:31      0.66    0.26    1.00
  YS02001649YS02001757 CONDUIT    989.50     0  02:50      1.26    0.60    1.00
  YS02001767YS02001765 CONDUIT    380.22     0  02:54      0.48    0.48    1.00
  YS02006561YS02001783 CONDUIT    969.22     0  03:00      2.05    0.50    1.00
  YS02001783YS02001784 CONDUIT    969.19     0  03:00      1.93    1.34    1.00
  YS02001784YS02001785 CONDUIT    970.18     0  03:00      1.93    2.26    1.00
  YS02001788YS02001790 CONDUIT    970.44     0  03:01      2.09    0.72    1.00
  YS02001790YS02001791 CONDUIT    970.57     0  03:00      2.46    1.06    1.00
  YS02001791YS02001793 CONDUIT    970.60     0  03:00      4.86    0.42    1.00
  YS02001910YS02001907 CONDUIT    541.64     0  03:01      0.69    0.31    1.00
  YS02001786YS02001788 CONDUIT    970.39     0  03:01      2.02    1.87    1.00
  YS02001915YS02001910 CONDUIT    541.59     0  03:01      0.69    0.27    1.00
  YS02001918YS02001915 CONDUIT    272.13     0  02:52      0.44    0.15    1.00
  YS02001923YS02001920 CONDUIT    268.99     0  02:52      0.72    0.12    1.00
  YS02001926YS02001923 CONDUIT    258.43     0  02:53      0.82    0.37    0.95
  YS02001929YS02001926 CONDUIT    193.01     0  02:53      0.87    0.09    0.86
  YS02001920YS02001918 CONDUIT    271.80     0  02:52      0.70    0.26    1.00
  YS02001629YS02163301 CONDUIT    222.59     0  02:49      0.28    0.27    1.00
  YS02001619YS02001622 CONDUIT    338.27     0  03:01      0.60    0.50    1.00
  YS02001622YS02001625 CONDUIT    338.05     0  03:01      0.43    0.18    1.00
  YS02001625YS02001629 CONDUIT    222.27     0  02:49      0.28    0.11    1.00
  YS02163301YS02001633 CONDUIT    222.34     0  02:49      0.28    0.21    1.00
  YS02163601YS02164001 CONDUIT    467.53     0  02:50      0.60    0.41    1.00
  YS02164001YS02001641 CONDUIT    467.69     0  02:50      0.60    0.64    1.00
  YS02001641YS02001644 CONDUIT    467.53     0  02:50      0.60    1.51    1.00
  YS02001647YS02001649 CONDUIT    713.01     0  02:50      0.91    0.38    1.00
  YS02006553YS02006556 CONDUIT    672.37     0  03:32      0.86    0.58    1.00
  YS02006556YS02006558 CONDUIT    673.77     0  03:32      0.86    0.53    1.00
  YSB6556YSB1171       CONDUIT     41.33     0  03:02      0.13    0.04    0.80
  YS02001907YS02006553 CONDUIT    672.51     0  03:32      0.75    0.79    1.00
  YS02006558YS02006561 CONDUIT    969.24     0  03:00      3.43    2.14    1.00
  YS02001633YS02163601 CONDUIT    467.44     0  02:50      0.60    0.49    1.00
  YS02001644YS02001647 CONDUIT    712.74     0  02:50      0.91    0.42    1.00
  YS02001745YS02001748 CONDUIT    658.25     0  02:46      1.48    0.25    0.96
  YS02001748YS02001751 CONDUIT    398.81     0  03:01      1.03    0.20    1.00
  YS02001751YS02001754 CONDUIT    398.73     0  03:01      0.84    0.19    1.00
  YS02001754YS02001757 CONDUIT    398.98     0  03:01      0.51    0.16    1.00
  YS02001882YS02001884 CONDUIT     29.07     0  02:46      0.08    0.03    1.00
  YS02001884YS02001887 CONDUIT     39.81     0  02:44      0.05    0.05    1.00
  YS02001890YS02001895 CONDUIT    517.31     0  03:07      0.66    0.24    1.00
  YS02001895YS02001898 CONDUIT    517.42     0  03:07      0.66    0.90    1.00
  YS02001898YS02001901 CONDUIT    517.59     0  03:07      0.66    0.33    1.00
  YS02001901YS02001904 CONDUIT    517.34     0  03:07      0.66    0.80    1.00
  YS02001904YS02001907 CONDUIT    517.45     0  03:07      0.66    0.18    1.00
  YS02001887YS02001890 CONDUIT    623.21     0  03:01      0.79    1.07    1.00
  YS02001652YS02001649 CONDUIT    484.35     0  03:01      0.62    0.24    1.00
  YS02001655YS02001652 CONDUIT    484.35     0  03:01      0.89    0.24    1.00
  YS02001658YS02001655 CONDUIT    483.73     0  03:01      1.18    0.21    1.00
  YS02001661YS02001658 CONDUIT    609.19     0  02:42      1.56    0.24    1.00
  YS02001664YS02001661 CONDUIT    736.70     0  02:55      1.59    0.23    0.75
  YSB1154YSB6556       CONDUIT     41.77     0  03:01      0.19    0.08    0.69
  YSB1174YSB1171       CONDUIT     34.49     0  03:01      0.10    0.05    0.81
  YSB1171HS02004479    CONDUIT     72.19     0  03:02      0.54    0.05    0.65
  HS02004881HS02006253 CONDUIT    131.62     0  03:01      2.05    0.03    0.24
  YS02001793JiankangQianchi CONDUIT    970.72     0  03:01      9.64    0.08    1.00
  YS02001757CaochengTiaoxuchi CONDUIT   1935.31     0  02:52      2.71    0.85    1.00
  WSF200WS02003060     CONDUIT    782.17     0  03:05      2.12    0.17    0.36
  1                    CONDUIT    889.41     0  03:08      3.22    0.31    0.38
  2                    CONDUIT    132.44     0  03:00      5.24    0.32    0.39
  3                    CONDUIT    306.58     0  03:00      8.77    0.49    0.50
  4                    CONDUIT      0.00     0  00:00      0.00    0.00    0.00
  CC-Pump-1            PUMP         0.00     0  00:00              0.00
  CC-Pump-2            PUMP       200.00     0  02:06              1.00
  JK-Pump-1            PUMP         0.00     0  00:00              0.00
  JK-Pump-2            PUMP       300.00     0  00:00              1.00
  XR-Pump-1            PUMP        95.00     0  00:00              1.00
  XR-Pump-2            PUMP         0.00     0  00:00              0.00
  XR-Pump-3            PUMP        95.00     0  00:00              1.00
  XR-Pump-4            PUMP         0.00     0  00:00              0.00
  
  
  ***************************
  Flow Classification Summary
  ***************************
  
  -------------------------------------------------------------------------------------
                      Adjusted    ---------- Fraction of Time in Flow Class ---------- 
                       /Actual         Up    Down  Sub   Sup   Up    Down  Norm  Inlet 
  Conduit               Length    Dry  Dry   Dry   Crit  Crit  Crit  Crit  Ltd   Ctrl  
  -------------------------------------------------------------------------------------
  WS02003066WSF200        1.00   0.07  0.00  0.00  0.00  0.93  0.00  0.00  0.63  0.00
  WS02006287WS02006284    1.00   0.04  0.01  0.00  0.60  0.35  0.00  0.00  0.67  0.00
  WS02006284WS02006280    1.00   0.05  0.00  0.00  0.00  0.00  0.00  0.95  0.00  0.00
  WS02006280WS02006229    1.00   0.05  0.00  0.00  0.00  0.00  0.00  0.95  0.00  0.00
  WS02006229WS02006228    1.00   0.00  0.00  0.00  0.99  0.00  0.00  0.01  0.00  0.00
  WS02006256WS02006235    1.00   0.00  0.00  0.00  1.00  0.00  0.00  0.00  0.00  0.00
  WS02006253WS02006251    1.00   0.03  0.01  0.00  0.95  0.00  0.00  0.00  0.00  0.00
  WS02006252WS02006251    1.00   0.08  0.00  0.00  0.00  0.00  0.92  0.00  0.00  0.00
  WS02006251WS02006249    1.00   0.00  0.00  0.00  1.00  0.00  0.00  0.00  0.30  0.00
  WS02006249WS02006248    1.00   0.00  0.02  0.00  0.83  0.00  0.15  0.00  0.00  0.00
  WS02006248WS02006247    1.00   0.02  0.00  0.00  0.97  0.00  0.00  0.00  0.20  0.00
  WS02006247WS02006245    1.00   0.02  0.00  0.00  0.98  0.00  0.00  0.00  0.00  0.00
  WS02006245WS02006243    1.00   0.01  0.00  0.00  0.93  0.00  0.00  0.05  0.02  0.00
  WS02006243WS02006242    1.00   0.01  0.00  0.00  0.99  0.00  0.00  0.00  0.24  0.00
  WS02006242WS02006240    1.00   0.00  0.00  0.00  1.00  0.00  0.00  0.00  0.00  0.00
  WS02006240WS02006239    1.00   0.00  0.00  0.00  0.96  0.00  0.00  0.04  0.01  0.00
  WS02006239WS02006238    1.00   0.00  0.00  0.00  1.00  0.00  0.00  0.00  0.03  0.00
  WS02006238WS02006235    1.00   0.00  0.00  0.00  1.00  0.00  0.00  0.00  0.00  0.00
  WS02006235WS02006234    1.00   0.00  0.00  0.00  0.96  0.00  0.04  0.00  0.00  0.00
  WS02006234WS02006232    1.00   0.00  0.00  0.00  1.00  0.00  0.00  0.00  0.12  0.00
  WS02006232WS02006231    1.00   0.00  0.00  0.00  0.99  0.00  0.00  0.00  0.00  0.00
  WS02006231WS02006230    1.00   0.00  0.00  0.00  0.31  0.00  0.69  0.00  0.00  0.00
  WS02006230WS02006229    1.00   0.00  0.00  0.00  0.98  0.00  0.00  0.02  0.01  0.00
  WS02006228WS02006109    1.00   0.00  0.00  0.00  1.00  0.00  0.00  0.00  0.00  0.00
  WS02006116WS02004401    1.00   0.03  0.00  0.00  0.97  0.00  0.00  0.00  0.00  0.00
  WS02006115WS02006116    1.00   0.03  0.00  0.00  0.97  0.00  0.00  0.01  0.00  0.00
  WS02006113WS02006111    1.00   0.02  0.00  0.00  0.02  0.96  0.00  0.00  0.13  0.00
  WS02006112WS02006115    1.00   0.02  0.00  0.00  0.97  0.00  0.00  0.00  0.00  0.00
  WS02006111WS02006112    1.00   0.02  0.00  0.00  0.97  0.00  0.00  0.00  0.91  0.00
  WS02006110WS02006113    1.00   0.01  0.01  0.00  0.98  0.00  0.00  0.00  0.00  0.00
  WS02006109WS02006110    1.00   0.00  0.01  0.00  0.98  0.00  0.01  0.00  0.00  0.00
  WS02004411WS02004412    1.00   0.04  0.00  0.00  0.96  0.00  0.00  0.00  0.00  0.00
  WS02004401WS02004402    1.00   0.03  0.00  0.00  0.97  0.00  0.00  0.00  0.00  0.00
  WS02004413WS02003067    1.00   0.04  0.02  0.00  0.00  0.00  0.94  0.00  0.00  0.00
  WS02004412WS02004413    1.00   0.04  0.00  0.00  0.96  0.00  0.00  0.00  0.03  0.00
  WS02004410WS02004411    1.00   0.04  0.00  0.00  0.96  0.00  0.00  0.00  0.04  0.00
  WS02004409WS02004410    1.00   0.04  0.00  0.00  0.96  0.00  0.00  0.00  0.04  0.00
  WS02004407WS02004409    1.00   0.04  0.00  0.00  0.96  0.00  0.00  0.00  0.89  0.00
  WS02004406WS02004407    1.00   0.00  0.04  0.00  0.96  0.00  0.00  0.00  0.00  0.00
  WS02004405WS02004406    1.00   0.00  0.00  0.00  1.00  0.00  0.00  0.00  0.01  0.00
  WS02004404WS02004405    1.00   0.00  0.00  0.00  1.00  0.00  0.00  0.00  0.00  0.00
  WS02004403WS02004404    1.00   0.00  0.03  0.00  0.97  0.00  0.00  0.00  0.01  0.00
  WS02004402WS02004403    1.00   0.03  0.00  0.00  0.97  0.00  0.00  0.00  0.00  0.00
  WS02004139WS02001211    1.00   0.00  0.00  0.00  0.99  0.00  0.00  0.00  0.00  0.00
  WS02004138WS02004139    1.00   0.00  0.00  0.00  0.99  0.01  0.00  0.00  1.00  0.00
  WS02003067WS02003066    1.00   0.06  0.01  0.00  0.94  0.00  0.00  0.00  0.00  0.00
  WS02001213WS02003059    1.00   0.00  0.00  0.00  0.99  0.00  0.00  0.00  0.00  0.00
  WS02001212WS02001213    1.00   0.00  0.00  0.00  0.63  0.00  0.36  0.00  0.00  0.00
  WS02001211WS02001212    1.00   0.00  0.00  0.00  1.00  0.00  0.00  0.00  0.00  0.00
  WS02003072WS02003073    1.00   0.00  0.00  0.00  0.00  0.00  0.00  1.00  0.00  0.00
  WS02003069WS02003072    1.00   0.00  0.00  0.00  0.99  0.01  0.00  0.00  0.39  0.00
  WS02003060WS02003069    1.00   0.00  0.00  0.00  0.99  0.01  0.00  0.00  0.21  0.00
  WS02003059WS02003060    1.00   0.00  0.00  0.00  1.00  0.00  0.00  0.00  0.01  0.00
  HS02004901HS02004770    1.00   0.05  0.00  0.00  0.95  0.00  0.00  0.00  0.01  0.00
  HS02004876HS02004881    1.00   0.02  0.00  0.00  0.87  0.11  0.00  0.00  0.00  0.00
  HS02004870HS02004876    1.00   0.01  0.00  0.00  0.99  0.00  0.00  0.00  0.95  0.00
  HS02004842HS02004848    1.00   0.00  0.05  0.00  0.95  0.00  0.00  0.00  0.58  0.00
  HS02004837HS02004842    1.00   0.00  0.00  0.00  0.99  0.01  0.00  0.00  0.11  0.00
  HS02004830HS02004837    1.00   0.00  0.00  0.00  1.00  0.00  0.00  0.00  0.99  0.00
  HS02004824HS02004830    1.00   0.00  0.00  0.00  1.00  0.00  0.00  0.00  0.01  0.00
  HS02004817HS02004824    1.00   0.00  0.00  0.00  1.00  0.00  0.00  0.00  0.98  0.00
  HS02004770HS02004777    1.00   0.00  0.05  0.00  0.95  0.00  0.00  0.00  0.04  0.00
  HS02004799HS02004480    1.00   0.00  0.03  0.00  0.95  0.00  0.03  0.00  0.00  0.00
  HS02004792HS02004799    1.00   0.00  0.00  0.00  0.99  0.01  0.00  0.00  0.98  0.00
  HS02004788HS02004792    1.00   0.00  0.00  0.00  0.99  0.01  0.00  0.00  0.98  0.00
  HS02004785HS02004788    1.00   0.00  0.00  0.00  1.00  0.00  0.00  0.00  0.00  0.00
  HS02004777HS02004785    1.00   0.00  0.00  0.00  1.00  0.00  0.00  0.00  0.15  0.00
  HS02004480HS02004478    1.00   0.05  0.00  0.00  0.68  0.00  0.00  0.27  0.00  0.00
  HS02004479HS02004480    1.00   0.03  0.00  0.00  0.97  0.00  0.00  0.00  0.13  0.00
  HS02004862HS02004870    1.00   0.00  0.00  0.00  1.00  0.00  0.00  0.00  0.06  0.00
  HS02004848HS02004852    1.00   0.05  0.00  0.00  0.95  0.00  0.00  0.00  0.64  0.00
  HS02004856HS02004862    1.00   0.00  0.06  0.00  0.94  0.00  0.00  0.00  0.79  0.00
  HS02004852HS02004856    1.00   0.05  0.00  0.00  0.95  0.00  0.00  0.00  0.81  0.00
  HS02004802HS02004478    1.00   0.05  0.00  0.00  0.95  0.00  0.00  0.00  0.03  0.00
  HS02004478WS02006287    1.00   0.05  0.00  0.00  0.72  0.23  0.00  0.00  0.66  0.00
  HS02004817HS02004807    1.00   0.00  0.05  0.00  0.95  0.00  0.00  0.00  0.01  0.00
  HS02004807HS02004802    1.00   0.05  0.00  0.00  0.95  0.00  0.00  0.00  0.00  0.00
  YS02001759YS02001757    1.00   0.00  0.00  0.00  1.00  0.00  0.00  0.00  0.17  0.00
  YS02001762YS02001759    1.00   0.00  0.00  0.00  1.00  0.00  0.00  0.00  0.04  0.00
  YS02001765YS02001762    1.00   0.00  0.00  0.00  1.00  0.00  0.00  0.00  0.17  0.00
  YS02001770YS02001767    1.00   0.00  0.00  0.00  1.00  0.00  0.00  0.00  0.00  0.00
  YS02001774YS02001770    1.00   0.00  0.05  0.00  0.95  0.00  0.00  0.00  0.04  0.00
  YS02001779YS02001774    1.00   0.00  0.00  0.00  1.00  0.00  0.00  0.00  0.22  0.00
  YS02001649YS02001757    1.00   0.00  0.00  0.00  1.00  0.00  0.00  0.00  0.17  0.00
  YS02001767YS02001765    1.00   0.00  0.00  0.00  1.00  0.00  0.00  0.00  0.01  0.00
  YS02006561YS02001783    1.00   0.06  0.00  0.00  0.63  0.31  0.00  0.00  0.54  0.00
  YS02001783YS02001784    1.00   0.00  0.06  0.00  0.94  0.00  0.00  0.00  0.01  0.00
  YS02001784YS02001785    1.00   0.00  0.00  0.00  1.00  0.00  0.00  0.00  0.21  0.00
  YS02001788YS02001790    1.00   0.00  0.00  0.00  0.72  0.28  0.00  0.00  0.40  0.00
  YS02001790YS02001791    1.00   0.00  0.00  0.00  0.68  0.32  0.00  0.00  0.21  0.00
  YS02001791YS02001793    1.00   0.00  0.00  0.00  0.68  0.32  0.00  0.00  0.02  0.00
  YS02001910YS02001907    1.00   0.00  0.00  0.00  0.97  0.00  0.00  0.03  0.13  0.00
  YS02001786YS02001788    1.00   0.00  0.00  0.00  0.71  0.29  0.00  0.00  0.00  0.00
  YS02001915YS02001910    1.00   0.00  0.00  0.00  0.98  0.02  0.00  0.00  0.19  0.00
  YS02001918YS02001915    1.00   0.00  0.01  0.00  0.98  0.02  0.00  0.00  0.56  0.00
  YS02001923YS02001920    1.00   0.00  0.00  0.00  1.00  0.00  0.00  0.00  0.82  0.00
  YS02001926YS02001923    1.00   0.00  0.04  0.00  0.15  0.00  0.81  0.00  0.00  0.00
  YS02001929YS02001926    1.00   0.00  0.05  0.00  0.95  0.00  0.00  0.00  0.75  0.00
  YS02001920YS02001918    1.00   0.00  0.01  0.00  0.99  0.00  0.00  0.00  0.00  0.00
  YS02001629YS02163301    1.00   0.05  0.00  0.00  0.94  0.00  0.00  0.00  0.00  0.00
  YS02001619YS02001622    1.00   0.05  0.00  0.00  0.95  0.00  0.00  0.00  0.00  0.00
  YS02001622YS02001625    1.00   0.05  0.00  0.00  0.95  0.00  0.00  0.00  0.08  0.00
  YS02001625YS02001629    1.00   0.05  0.02  0.00  0.92  0.00  0.01  0.00  0.00  0.00
  YS02163301YS02001633    1.00   0.00  0.05  0.00  0.95  0.00  0.00  0.00  0.00  0.00
  YS02163601YS02164001    1.00   0.00  0.04  0.00  0.96  0.00  0.00  0.00  0.00  0.00
  YS02164001YS02001641    1.00   0.01  0.03  0.00  0.96  0.00  0.00  0.00  0.06  0.00
  YS02001641YS02001644    1.00   0.00  0.01  0.00  0.99  0.00  0.00  0.00  0.00  0.00
  YS02001647YS02001649    1.00   0.00  0.06  0.00  0.94  0.00  0.00  0.00  0.01  0.00
  YS02006553YS02006556    1.00   0.02  0.00  0.00  0.98  0.00  0.00  0.00  0.03  0.00
  YS02006556YS02006558    1.00   0.00  0.00  0.00  1.00  0.00  0.00  0.00  0.00  0.00
  YSB6556YSB1171          1.00   0.03  0.02  0.00  0.95  0.00  0.00  0.00  0.00  0.00
  YS02001907YS02006553    1.00   0.00  0.02  0.00  0.97  0.00  0.00  0.00  0.00  0.00
  YS02006558YS02006561    1.00   0.06  0.00  0.00  0.19  0.74  0.00  0.00  0.45  0.00
  YS02001633YS02163601    1.00   0.00  0.01  0.00  0.99  0.00  0.00  0.00  0.16  0.00
  YS02001644YS02001647    1.00   0.00  0.06  0.00  0.94  0.00  0.00  0.00  0.00  0.00
  YS02001745YS02001748    1.00   0.00  0.00  0.00  0.88  0.01  0.00  0.11  0.04  0.00
  YS02001748YS02001751    1.00   0.00  0.00  0.00  0.97  0.03  0.00  0.00  0.15  0.00
  YS02001751YS02001754    1.00   0.00  0.00  0.00  0.93  0.00  0.00  0.07  0.02  0.00
  YS02001754YS02001757    1.00   0.00  0.00  0.00  0.99  0.01  0.00  0.00  0.21  0.00
  YS02001882YS02001884    1.00   0.05  0.00  0.00  0.95  0.00  0.00  0.00  0.00  0.00
  YS02001884YS02001887    1.00   0.03  0.01  0.00  0.96  0.00  0.00  0.00  0.00  0.00
  YS02001890YS02001895    1.00   0.00  0.05  0.00  0.94  0.00  0.00  0.00  0.00  0.00
  YS02001895YS02001898    1.00   0.06  0.00  0.00  0.93  0.00  0.01  0.00  0.00  0.00
  YS02001898YS02001901    1.00   0.06  0.00  0.00  0.94  0.00  0.00  0.00  0.03  0.00
  YS02001901YS02001904    1.00   0.06  0.00  0.00  0.94  0.00  0.00  0.00  0.00  0.00
  YS02001904YS02001907    1.00   0.00  0.05  0.00  0.94  0.00  0.00  0.00  0.00  0.00
  YS02001887YS02001890    1.00   0.00  0.00  0.00  0.97  0.00  0.03  0.00  0.00  0.00
  YS02001652YS02001649    1.00   0.00  0.00  0.00  1.00  0.00  0.00  0.00  0.19  0.00
  YS02001655YS02001652    1.00   0.00  0.00  0.00  0.93  0.00  0.00  0.07  0.03  0.00
  YS02001658YS02001655    1.00   0.00  0.05  0.00  0.92  0.03  0.00  0.00  0.13  0.00
  YS02001661YS02001658    1.00   0.05  0.00  0.00  0.87  0.08  0.00  0.00  0.09  0.00
  YS02001664YS02001661    1.00   0.05  0.00  0.00  0.86  0.10  0.00  0.00  0.22  0.00
  YSB1154YSB6556          1.00   0.05  0.00  0.00  0.95  0.00  0.00  0.00  0.02  0.00
  YSB1174YSB1171          1.00   0.03  0.01  0.00  0.96  0.00  0.00  0.00  0.00  0.00
  YSB1171HS02004479       1.00   0.03  0.00  0.00  0.97  0.00  0.00  0.00  0.11  0.00
  HS02004881HS02006253    1.00   0.03  0.00  0.00  0.63  0.02  0.00  0.32  0.49  0.00
  YS02001793JiankangQianchi    1.00   0.00  0.00  0.00  0.93  0.07  0.00  0.00  0.21  0.00
  YS02001757CaochengTiaoxuchi    1.00   0.00  0.08  0.00  0.90  0.02  0.00  0.00  0.00  0.00
  WSF200WS02003060        1.00   0.00  0.07  0.00  0.32  0.61  0.00  0.00  0.12  0.00
  1                       1.00   0.00  0.00  0.00  0.00  1.00  0.00  0.00  0.27  0.00
  2                       1.00   0.90  0.00  0.00  0.00  0.10  0.00  0.00  0.01  0.00
  3                       1.00   0.26  0.00  0.00  0.00  0.74  0.00  0.00  0.31  0.00
  4                       1.00   1.00  0.00  0.00  0.00  0.00  0.00  0.00  0.00  0.00
  
  
  *************************
  Conduit Surcharge Summary
  *************************
  
  ----------------------------------------------------------------------------
                                                           Hours        Hours 
                         --------- Hours Full --------   Above Full   Capacity
  Conduit                Both Ends  Upstream  Dnstream   Normal Flow   Limited
  ----------------------------------------------------------------------------
  WS02006229WS02006228        1.20      1.22      1.20      2.90         1.20
  WS02006256WS02006235        5.80      5.80      6.84      3.74         0.01
  WS02006249WS02006248        0.01      0.01      0.01      3.22         0.01
  WS02006247WS02006245        0.01      0.01      0.01      3.95         0.01
  WS02006245WS02006243        0.02      0.02      0.24      0.01         0.01
  WS02006243WS02006242        0.30      0.30      0.58      0.01         0.01
  WS02006242WS02006240        0.54      0.54      0.62      0.18         0.01
  WS02006240WS02006239        0.56      0.56      0.59      0.01         0.01
  WS02006239WS02006238        0.65      0.65      0.68      0.01         0.01
  WS02006238WS02006235        0.68      0.68      0.76      0.01         0.01
  WS02006235WS02006234        0.63      0.63      0.67      5.77         0.01
  WS02006234WS02006232        0.66      0.66      1.05      0.01         0.01
  WS02006232WS02006231        0.60      0.60      1.05      0.01         0.01
  WS02006231WS02006230        0.56      0.56      0.62      5.92         0.01
  WS02006230WS02006229        1.47      2.37      1.47      6.13         1.47
  WS02006228WS02006109        1.21      1.24      1.21      4.61         1.21
  WS02006116WS02004401        0.27      0.27      0.28      0.18         0.19
  WS02006115WS02006116        0.10      0.10      0.11      0.03         0.04
  WS02006112WS02006115        0.08      0.08      1.04      0.01         0.01
  WS02006111WS02006112        0.01      0.01      3.10      0.01         0.01
  WS02006110WS02006113        0.01      0.01      1.23      0.01         0.01
  WS02006109WS02006110        0.89      0.89      1.24      0.89         0.01
  WS02004411WS02004412        0.01      0.01      0.01      0.24         0.01
  WS02004401WS02004402        0.28      0.28      0.33      0.01         0.01
  WS02004410WS02004411        0.01      0.01      0.01      0.16         0.01
  WS02004409WS02004410        0.01      0.01      0.01      0.05         0.01
  WS02004406WS02004407        0.01      0.01      0.52      0.01         0.01
  WS02004405WS02004406        0.52      0.57      0.52      1.01         0.52
  WS02004404WS02004405        0.57      0.62      0.57      5.89         0.57
  WS02004403WS02004404        0.34      0.34      0.62      0.01         0.01
  WS02004402WS02004403        0.33      0.33      0.34      0.26         0.26
  WS02003072WS02003073        0.01      0.01      0.01      2.75         0.01
  HS02004876HS02004881        0.01      0.01      0.01      0.17         0.01
  HS02004785HS02004788        0.01      0.01      0.01      0.10         0.01
  HS02004480HS02004478        0.01      0.01      0.01      0.52         0.01
  YS02001759YS02001757        5.54      5.54      5.62      0.01         0.01
  YS02001762YS02001759        5.51      5.51      5.54      0.01         0.01
  YS02001765YS02001762        5.49      5.49      5.51      0.01         0.01
  YS02001770YS02001767        5.47      5.47      5.47      0.31         0.76
  YS02001774YS02001770        5.45      5.45      5.50      0.01         0.01
  YS02001779YS02001774        5.28      5.28      5.50      0.01         0.01
  YS02001649YS02001757        5.52      5.52      5.62      0.01         0.01
  YS02001767YS02001765        5.47      5.47      5.49      0.01         0.01
  YS02006561YS02001783        0.92      0.92      1.65      0.01         0.01
  YS02001783YS02001784        1.65      1.65      1.68      1.28         1.25
  YS02001784YS02001785        1.65      1.68      1.65      2.21         1.64
  YS02001788YS02001790        1.62      1.62      4.02      0.01         0.01
  YS02001790YS02001791        4.02      4.02      4.08      0.76         0.75
  YS02001791YS02001793        4.08      4.08      4.24      0.01         0.01
  YS02001910YS02001907        1.24      1.24      1.65      0.01         0.01
  YS02001786YS02001788        1.62      1.65      1.62      1.80         1.62
  YS02001915YS02001910        1.03      1.03      1.24      0.01         0.01
  YS02001918YS02001915        0.79      0.79      1.03      0.01         0.01
  YS02001923YS02001920        0.63      0.63      0.83      0.01         0.01
  YS02001920YS02001918        0.79      0.79      0.83      0.01         0.01
  YS02001629YS02163301        5.45      5.45      5.46      0.01         0.01
  YS02001619YS02001622        5.15      5.15      5.16      0.01         0.01
  YS02001622YS02001625        5.16      5.16      5.34      0.01         0.01
  YS02001625YS02001629        5.15      5.15      5.34      0.01         0.01
  YS02163301YS02001633        5.46      5.46      5.49      0.01         0.01
  YS02163601YS02164001        5.49      5.49      5.52      0.01         0.01
  YS02164001YS02001641        5.49      5.49      5.50      0.01         0.03
  YS02001641YS02001644        5.50      5.50      5.50      1.49         1.45
  YS02001647YS02001649        5.31      5.31      5.52      0.01         0.01
  YS02006553YS02006556        1.44      1.44      1.72      0.01         0.01
  YS02006556YS02006558        1.56      1.56      1.78      0.01         0.01
  YS02001907YS02006553        2.24      2.24      2.45      0.01         0.01
  YS02006558YS02006561        1.13      1.41      1.13      2.09         1.13
  YS02001633YS02163601        5.48      5.48      5.52      0.01         0.01
  YS02001644YS02001647        5.31      5.31      5.50      0.01         0.01
  YS02001745YS02001748        0.01      0.01      5.03      0.01         0.01
  YS02001748YS02001751        5.05      5.05      5.13      0.01         0.01
  YS02001751YS02001754        5.13      5.13      5.29      0.01         0.01
  YS02001754YS02001757        5.30      5.30      5.62      0.01         0.01
  YS02001882YS02001884        1.04      1.04      1.08      0.01         0.01
  YS02001884YS02001887        1.13      1.13      1.16      0.01         0.01
  YS02001890YS02001895        1.02      1.02      1.25      0.01         0.01
  YS02001895YS02001898        1.00      1.00      1.02      0.01         0.01
  YS02001898YS02001901        1.03      1.03      1.13      0.01         0.01
  YS02001901YS02001904        1.10      1.10      1.13      0.01         0.01
  YS02001904YS02001907        1.10      1.10      1.74      0.01         0.01
  YS02001887YS02001890        1.19      1.19      1.22      0.07         0.01
  YS02001652YS02001649        5.31      5.31      5.52      0.01         0.01
  YS02001655YS02001652        5.15      5.15      5.30      0.01         0.01
  YS02001658YS02001655        5.05      5.05      5.15      0.01         0.01
  YS02001661YS02001658        0.23      0.23      5.05      0.01         0.01
  YS02001664YS02001661        0.01      0.01      1.33      0.01         0.01
  YS02001793JiankangQianchi        4.20      4.20      5.50      0.01         0.01
  YS02001757CaochengTiaoxuchi        4.84      4.84      5.62      0.01         0.01
  
  
  ***************
  Pumping Summary
  ***************
  
  ---------------------------------------------------------------------------------------------------------
                                                  Min       Avg       Max     Total     Power    % Time Off
                        Percent   Number of      Flow      Flow      Flow    Volume     Usage    Pump Curve
  Pump                 Utilized   Start-Ups       LPS       LPS       LPS  10^6 ltr     Kw-hr    Low   High
  ---------------------------------------------------------------------------------------------------------
  CC-Pump-1                0.00           0      0.00      0.00      0.00     0.000      0.00    0.0    0.0
  CC-Pump-2               65.91           3      0.00    163.95    200.00     2.962      3.81    0.0   11.9
  JK-Pump-1                0.00           0      0.00      0.00      0.00     0.000      0.00    0.0    0.0
  JK-Pump-2               91.50           7      0.00    206.86    300.00     4.228     29.88    0.0    0.0
  XR-Pump-1               78.72          10      0.00     58.47     95.00     1.311      8.10    0.0    0.0
  XR-Pump-2                0.00           0      0.00      0.00      0.00     0.000      0.00    0.0    0.0
  XR-Pump-3              100.00           1      0.00     95.00     95.00     2.679     15.03    0.0    0.0
  XR-Pump-4                0.00           0      0.00      0.00      0.00     0.000      0.00    0.0    0.0
  

  Analysis begun on:  Wed Jan  5 18:44:50 2022
  Analysis ended on:  Wed Jan  5 18:44:54 2022
  Total elapsed time: 00:00:04