
  EPA STORM WATER MANAGEMENT MODEL - VERSION 5.1 (Build 5.3.0.dev0)
  --------------------------------------------------------------

  WARNING 04: minimum elevation drop used for Conduit WS02004404WS02004405
  WARNING 03: negative offset ignored for Link YS02001904YS02001907
  
  *********************************************************
  NOTE: The summary statistics displayed in this report are
  based on results found at every computational time step,  
  not just on results from each reporting time step.
  *********************************************************
  
  ****************
  Analysis Options
  ****************
  Flow Units ............... LPS
  Process Models:
    Rainfall/Runoff ........ YES
    RDII ................... NO
    Snowmelt ............... NO
    Groundwater ............ NO
    Flow Routing ........... YES
    Ponding Allowed ........ NO
    Water Quality .......... NO
  Infiltration Method ...... HORTON
  Flow Routing Method ...... DYNWAVE
  Surcharge Method ......... EXTRAN
  Starting Date ............ 08/28/2015 08:00:00
  Ending Date .............. 08/28/2015 15:50:00
  Antecedent Dry Days ...... 8.0
  Report Time Step ......... 00:01:00
  Wet Time Step ............ 00:01:00
  Dry Time Step ............ 00:01:00
  Routing Time Step ........ 5.00 sec
  Variable Time Step ....... YES
  Maximum Trials ........... 8
  Number of Threads ........ 4
  Head Tolerance ........... 0.001500 m
  
  
  **************************        Volume         Depth
  Runoff Quantity Continuity     hectare-m            mm
  **************************     ---------       -------
  Total Precipitation ......         5.556        12.164
  Evaporation Loss .........         0.000         0.000
  Infiltration Loss ........         1.427         3.124
  Surface Runoff ...........         3.072         6.726
  Final Storage ............         1.058         2.316
  Continuity Error (%) .....        -0.016
  
  
  **************************        Volume        Volume
  Flow Routing Continuity        hectare-m      10^6 ltr
  **************************     ---------     ---------
  Dry Weather Inflow .......         0.616         6.165
  Wet Weather Inflow .......         3.071        30.708
  Groundwater Inflow .......         0.000         0.000
  RDII Inflow ..............         0.000         0.000
  External Inflow ..........         0.102         1.024
  External Outflow .........         2.232        22.316
  Flooding Loss ............         1.111        11.110
  Evaporation Loss .........         0.000         0.000
  Exfiltration Loss ........         0.000         0.000
  Initial Stored Volume ....         0.076         0.761
  Final Stored Volume ......         0.555         5.550
  Continuity Error (%) .....        -0.826
  
  
  *************************
  Highest Continuity Errors
  *************************
  Node HS02004842 (16.24%)
  Node YS02001884 (10.67%)
  Node YS02001774 (6.60%)
  Node YSB1171 (3.12%)
  Node HS02004817 (2.99%)
  
  
  ***************************
  Time-Step Critical Elements
  ***************************
  Link 3 (90.81%)
  Link WS02006280WS02006229 (1.81%)
  Link WS02004404WS02004405 (1.21%)
  
  
  ********************************
  Highest Flow Instability Indexes
  ********************************
  Link WS02006252WS02006251 (61)
  Link YS02001619YS02001622 (43)
  Link YS02163601YS02164001 (43)
  Link YS02001629YS02163301 (42)
  Link YS02163301YS02001633 (42)
  
  
  *************************
  Routing Time Step Summary
  *************************
  Minimum Time Step           :     0.25 sec
  Average Time Step           :     0.86 sec
  Maximum Time Step           :     5.00 sec
  Percent in Steady State     :    -0.00
  Average Iterations per Step :     4.81
  Percent Not Converging      :    25.27
  
  
  ***************************
  Subcatchment Runoff Summary
  ***************************
  
  ------------------------------------------------------------------------------------------------------------------------------
                            Total      Total      Total      Total     Imperv       Perv      Total       Total     Peak  Runoff
                           Precip      Runon       Evap      Infil     Runoff     Runoff     Runoff      Runoff   Runoff   Coeff
  Subcatchment                 mm         mm         mm         mm         mm         mm         mm    10^6 ltr      LPS
  ------------------------------------------------------------------------------------------------------------------------------
  sub0                      12.16       0.00       0.00       0.85      10.05       0.00      10.05        0.01     1.91   0.826
  sub1                      12.16       0.00       0.00       1.34       9.56       0.00       9.56        0.06    14.15   0.786
  sub2                      12.16       0.00       0.00       4.50       6.75       0.00       6.75        0.06    13.75   0.555
  sub3                      12.16       0.00       0.00       4.50       6.71       0.00       6.71        0.15    32.07   0.552
  sub4                      12.16       0.00       0.00       1.34       9.40       0.00       9.40        0.20    40.20   0.773
  sub5                      12.16       0.00       0.00       0.85       9.99       0.00       9.99        0.11    25.19   0.822
  sub7                      12.16       0.00       0.00       1.09       9.81       0.00       9.81        0.03     7.55   0.807
  sub8                      12.16       0.00       0.00       1.09       9.80       0.00       9.80        0.06    14.17   0.806
  sub9                      12.16       0.00       0.00       1.09       9.80       0.00       9.80        0.05    10.64   0.806
  sub10                     12.16       0.00       0.00       0.97       9.89       0.00       9.89        0.11    24.40   0.813
  sub11                     12.16       0.00       0.00       0.97       9.91       0.00       9.91        0.12    26.15   0.815
  sub12                     12.16       0.00       0.00       1.58       9.39       0.00       9.39        0.08    19.06   0.772
  sub14                     12.16       0.00       0.00       1.09       9.80       0.00       9.80        0.09    21.02   0.805
  sub15                     12.16       0.00       0.00       3.65       7.53       0.00       7.53        0.13    29.11   0.619
  sub16                     12.16       0.00       0.00       4.01       7.23       0.00       7.23        0.08    17.47   0.594
  sub17                     12.16       0.00       0.00       3.89       7.34       0.00       7.34        0.06    14.47   0.603
  sub22                     12.16       0.00       0.00       5.23       6.14       0.00       6.14        0.39    88.27   0.505
  sub23                     12.16       0.00       0.00       4.50       6.79       0.00       6.79        0.32    73.89   0.558
  sub60                     12.16       0.00       0.00       1.46       7.71       0.00       7.71        2.34   297.17   0.634
  sub61                     12.16       0.00       0.00       2.07       7.87       0.00       7.87        2.43   359.80   0.647
  sub62                     12.16       0.00       0.00       0.97       8.55       0.00       8.55        2.63   372.87   0.703
  sub63                     12.16       0.00       0.00       3.53       6.89       0.00       6.89        2.09   327.80   0.567
  sub64                     12.16       0.00       0.00       1.82       7.40       0.00       7.40        2.25   282.66   0.608
  sub65                     12.16       0.00       0.00       1.58       7.52       0.00       7.52        2.31   287.20   0.618
  sub66                     12.16       0.00       0.00       3.53       6.36       0.00       6.36        1.95   257.27   0.523
  sub67                     12.16       0.00       0.00       0.97       9.05       0.00       9.05        2.79   452.90   0.744
  sub68                     12.16       0.00       0.00       1.70       8.28       0.00       8.28        2.55   391.99   0.681
  sub69                     12.16       0.00       0.00       1.82       8.61       0.00       8.61        2.01   355.79   0.708
  sub70                     12.16       8.79       0.00       7.03      11.43       0.10      11.53        2.64   335.00   0.550
  sub71                     12.16       0.00       0.00       0.97       8.31       0.00       8.31        1.96   263.63   0.683
  sub72                     12.16       0.00       0.00       0.85       6.56       0.00       6.56        1.34   129.40   0.540
  sub73                     12.16      11.23       0.00       7.88      12.47       0.08      12.54        2.95   300.52   0.536
  sub74                     12.16       0.00       0.00       9.12       2.57       0.00       2.57        1.03   189.59   0.211
  
  
  ******************
  Node Depth Summary
  ******************
  
  ---------------------------------------------------------------------------------
                                 Average  Maximum  Maximum  Time of Max    Reported
                                   Depth    Depth      HGL   Occurrence   Max Depth
  Node                 Type       Meters   Meters   Meters  days hr:min      Meters
  ---------------------------------------------------------------------------------
  WS02001211           JUNCTION     0.63     0.76     5.60     0  00:50        0.76
  WS02001212           JUNCTION     0.37     0.45     5.52     0  00:50        0.45
  WS02001213           JUNCTION     0.61     0.69     5.45     0  03:07        0.69
  WS02003069           JUNCTION     0.46     0.56     5.15     0  03:07        0.56
  WS02003072           JUNCTION     0.52     0.62     4.99     0  03:08        0.62
  WS02003073           JUNCTION     0.31     0.38     4.45     0  03:08        0.38
  WS02003060           JUNCTION     0.41     0.50     5.43     0  03:07        0.50
  WS02003066           JUNCTION     0.26     0.33     5.88     0  03:05        0.33
  WS02003059           JUNCTION     0.68     0.76     5.44     0  03:07        0.76
  WS02003067           JUNCTION     0.62     0.75     6.07     0  03:04        0.75
  WS02004401           JUNCTION     0.75     0.99     6.99     0  03:03        0.98
  WS02004402           JUNCTION     0.78     1.00     6.96     0  03:02        1.00
  WS02004403           JUNCTION     0.80     1.00     6.93     0  03:02        1.00
  WS02004404           JUNCTION     0.87     1.07     6.92     0  03:02        1.06
  WS02004406           JUNCTION     0.87     1.04     6.87     0  03:02        1.03
  WS02004409           JUNCTION     0.57     0.76     6.53     0  03:05        0.76
  WS02004410           JUNCTION     0.58     0.77     6.49     0  03:05        0.77
  WS02004411           JUNCTION     0.60     0.77     6.45     0  03:05        0.77
  WS02004412           JUNCTION     0.61     0.77     6.41     0  03:05        0.77
  WS02004413           JUNCTION     0.76     0.92     6.39     0  03:05        0.92
  WS02004405           JUNCTION     0.86     1.05     6.90     0  03:02        1.05
  WS02006109           JUNCTION     0.85     1.11     7.73     0  03:00        1.10
  WS02006110           JUNCTION     0.82     1.03     7.61     0  02:56        1.01
  WS02006111           JUNCTION     0.25     0.37     7.08     0  03:03        0.37
  WS02006112           JUNCTION     0.93     1.21     7.09     0  03:00        1.20
  WS02006113           JUNCTION     0.39     0.51     7.41     0  03:03        0.51
  WS02006115           JUNCTION     0.65     0.90     7.04     0  03:02        0.90
  WS02006116           JUNCTION     0.73     0.98     7.02     0  03:02        0.98
  WS02006230           JUNCTION     0.87     1.18     7.93     0  03:02        1.18
  WS02006231           JUNCTION     0.59     0.84     7.96     0  03:02        0.84
  WS02006232           JUNCTION     0.73     0.96     8.00     0  03:02        0.95
  WS02006234           JUNCTION     0.67     0.87     8.03     0  03:02        0.87
  WS02006235           JUNCTION     0.71     0.90     8.06     0  03:02        0.90
  WS02006238           JUNCTION     0.74     0.93     8.07     0  03:02        0.92
  WS02006240           JUNCTION     0.66     0.82     8.11     0  03:02        0.82
  WS02006242           JUNCTION     0.73     0.88     8.15     0  03:02        0.88
  WS02006243           JUNCTION     0.62     0.76     8.18     0  03:02        0.76
  WS02006245           JUNCTION     0.59     0.72     8.21     0  03:02        0.72
  WS02006247           JUNCTION     0.61     0.73     8.23     0  03:02        0.73
  WS02006248           JUNCTION     0.55     0.66     8.24     0  03:02        0.66
  WS02006249           JUNCTION     0.57     0.66     8.26     0  03:02        0.66
  WS02006239           JUNCTION     0.71     0.88     8.09     0  03:02        0.88
  WS02006251           JUNCTION     0.59     0.72     8.39     0  03:01        0.72
  WS02006252           JUNCTION     0.54     0.59     8.84     0  04:18        0.59
  WS02006253           JUNCTION     0.61     0.74     8.39     0  03:01        0.74
  WS02006256           JUNCTION     1.08     1.15     8.09     0  00:00        1.14
  WS02004138           JUNCTION     0.14     0.19     7.44     0  00:30        0.19
  WS02004407           JUNCTION     0.25     0.33     6.65     0  03:03        0.33
  WS02006228           JUNCTION     0.87     1.18     7.83     0  03:02        1.17
  WS02006229           JUNCTION     0.85     1.19     7.89     0  03:02        1.19
  WS02006280           JUNCTION     0.07     0.19     8.46     0  03:02        0.19
  WS02006284           JUNCTION     0.37     0.55     8.95     0  03:02        0.55
  WS02006287           JUNCTION     0.11     0.28     9.24     0  03:01        0.28
  WSF200               JUNCTION     0.26     0.35     5.58     0  03:04        0.35
  HS02004901           JUNCTION     0.13     0.28    10.10     0  03:01        0.28
  HS02004881           JUNCTION     0.01     0.04     9.07     0  03:01        0.04
  HS02004876           JUNCTION     0.05     0.12     9.15     0  03:01        0.12
  HS02004870           JUNCTION     0.02     0.06     9.35     0  03:01        0.06
  HS02004862           JUNCTION     0.02     0.07     9.46     0  03:01        0.07
  HS02004856           JUNCTION     0.08     0.13     9.55     0  03:01        0.13
  HS02004852           JUNCTION     0.01     0.05     9.56     0  03:01        0.05
  HS02004848           JUNCTION     0.01     0.05     9.65     0  03:01        0.05
  HS02004842           JUNCTION     0.33     0.38     9.65     0  03:01        0.38
  HS02004837           JUNCTION     0.03     0.07     9.65     0  03:01        0.07
  HS02004830           JUNCTION     0.04     0.08     9.55     0  03:01        0.08
  HS02004824           JUNCTION     0.03     0.06     9.46     0  03:01        0.06
  HS02004817           JUNCTION     0.45     0.60     9.44     0  03:01        0.60
  HS02004807           JUNCTION     0.13     0.27     9.44     0  03:01        0.27
  HS02004802           JUNCTION     0.17     0.30     9.43     0  03:01        0.30
  HS02004799           JUNCTION     0.13     0.33     9.54     0  03:01        0.33
  HS02004792           JUNCTION     0.04     0.14     9.66     0  03:01        0.14
  HS02004788           JUNCTION     0.03     0.10    10.00     0  03:01        0.10
  HS02004785           JUNCTION     0.05     0.17    10.07     0  03:01        0.17
  HS02004777           JUNCTION     0.16     0.30    10.10     0  03:01        0.30
  HS02004770           JUNCTION     0.13     0.27    10.10     0  03:01        0.27
  HS02004480           JUNCTION     0.09     0.26     9.50     0  03:01        0.26
  HS02004479           JUNCTION     0.13     0.30     9.50     0  03:01        0.30
  HS02004478           JUNCTION     0.07     0.18     9.41     0  03:01        0.18
  YS02001745           JUNCTION     0.63     0.86     8.38     0  03:20        0.86
  YS02001748           JUNCTION     1.01     2.27     9.35     0  02:46        1.86
  YS02001751           JUNCTION     1.19     2.20     9.08     0  02:47        1.89
  YS02001754           JUNCTION     1.44     2.20     8.81     0  02:47        1.89
  YS02001762           JUNCTION     1.65     2.07     8.47     0  02:47        2.02
  YS02001765           JUNCTION     1.60     2.02     8.47     0  02:47        1.96
  YS02001767           JUNCTION     1.56     1.97     8.46     0  02:47        1.92
  YS02001770           JUNCTION     1.56     1.95     8.44     0  02:47        1.90
  YS02001774           JUNCTION     1.63     2.01     8.44     0  02:47        1.96
  YS02001779           JUNCTION     1.38     1.68     8.37     0  02:44        1.68
  YS02001882           JUNCTION     0.55     1.61     8.33     0  03:00        1.60
  YS02001884           JUNCTION     0.64     1.71     8.32     0  03:00        1.69
  YS02001759           JUNCTION     1.68     2.12     8.48     0  02:47        2.05
  YS02001887           JUNCTION     0.72     1.79     8.32     0  03:01        1.78
  YS02001890           JUNCTION     0.75     1.81     8.31     0  02:52        1.80
  YS02001898           JUNCTION     0.52     1.55     8.29     0  03:00        1.55
  YS02001901           JUNCTION     0.63     1.67     8.28     0  03:00        1.67
  YS02001904           JUNCTION     0.61     1.64     8.27     0  03:00        1.63
  YS02001907           JUNCTION     0.94     1.96     8.25     0  02:52        1.96
  YS02001910           JUNCTION     0.73     1.77     8.28     0  02:54        1.77
  YS02001915           JUNCTION     0.53     1.59     8.31     0  02:53        1.57
  YS02001918           JUNCTION     0.28     1.27     8.33     0  02:53        1.25
  YS02001619           JUNCTION     1.17     1.61     8.54     0  02:43        1.47
  YS02001629           JUNCTION     1.52     1.85     8.40     0  02:43        1.84
  YS02001641           JUNCTION     1.62     1.97     8.41     0  02:46        1.93
  YS02001644           JUNCTION     1.62     1.92     8.35     0  02:44        1.92
  YS02001652           JUNCTION     1.46     2.16     8.76     0  03:05        1.94
  YS02001655           JUNCTION     1.22     2.20     9.05     0  02:41        1.88
  YS02001920           JUNCTION     0.37     1.34     8.35     0  02:53        1.32
  YS02001923           JUNCTION     0.21     1.10     8.36     0  02:53        1.08
  YS02001926           JUNCTION     0.26     0.91     8.36     0  02:53        0.89
  YS02001929           JUNCTION     0.15     0.69     8.39     0  02:53        0.67
  YS02001658           JUNCTION     0.96     2.30     9.44     0  02:44        1.87
  YS02001661           JUNCTION     0.74     2.46     9.86     0  03:04        1.81
  YS02001664           JUNCTION     0.30     0.57     8.50     0  02:59        0.56
  YS02001622           JUNCTION     1.19     1.62     8.52     0  02:44        1.49
  YS02001633           JUNCTION     1.61     2.00     8.45     0  02:46        1.93
  YS02001649           JUNCTION     1.65     2.05     8.44     0  02:44        2.05
  YS02001757           JUNCTION     1.77     2.21     8.47     0  02:44        2.16
  YS02001895           JUNCTION     0.51     1.56     8.30     0  03:00        1.55
  YS02001625           JUNCTION     1.47     1.78     8.38     0  02:43        1.78
  YS02163301           JUNCTION     1.55     1.91     8.43     0  02:46        1.88
  YS02163601           JUNCTION     1.66     2.06     8.46     0  02:46        1.98
  YS02164001           JUNCTION     1.60     1.99     8.45     0  02:46        1.91
  YS02001647           JUNCTION     1.45     1.81     8.42     0  02:47        1.80
  YSB1154              JUNCTION     0.27     0.45     9.51     0  03:01        0.45
  YSB6556              JUNCTION     0.16     0.34     9.51     0  03:01        0.34
  YSB1174              JUNCTION     0.22     0.40     9.51     0  03:01        0.40
  YSB1171              JUNCTION     0.42     0.60     9.51     0  03:01        0.60
  YS02006553           JUNCTION     0.94     1.96     8.25     0  02:55        1.96
  YS02006561           JUNCTION     0.32     1.08     7.74     0  03:00        1.07
  YS02006556           JUNCTION     0.91     1.92     8.23     0  03:00        1.92
  YS02006558           JUNCTION     0.95     1.96     8.23     0  03:00        1.94
  YS02001783           JUNCTION     0.56     2.15     8.29     0  02:37        1.46
  YS02001784           JUNCTION     0.59     2.00     8.07     0  02:37        1.41
  YS02001786           JUNCTION     0.54     1.95     7.98     0  02:37        1.25
  YS02001788           JUNCTION     0.49     1.94     7.92     0  02:37        1.12
  YS02001790           JUNCTION     0.64     1.96     7.60     0  02:36        1.29
  YS02001791           JUNCTION     0.64     1.72     7.19     0  02:37        1.27
  YS02001793           JUNCTION     0.93     2.31     7.14     0  02:34        1.80
  WS02004139           JUNCTION     0.57     0.71     5.62     0  00:50        0.71
  WSC                  OUTFALL      0.31     0.38     1.05     0  03:08        0.38
  3                    OUTFALL      0.11     0.14     6.14     0  03:02        0.14
  4                    OUTFALL      0.10     0.16     7.16     0  03:02        0.16
  5                    OUTFALL      0.00     0.00     5.00     0  00:00        0.00
  JK-storage           STORAGE      3.42     5.80     6.60     0  02:37        5.80
  CC-storage           STORAGE      0.98     1.34     8.34     0  03:40        1.34
  XR-storage           STORAGE      7.27     7.72     5.72     0  02:32        7.72
  
  
  *******************
  Node Inflow Summary
  *******************
  
  -------------------------------------------------------------------------------------------------
                                  Maximum  Maximum                  Lateral       Total        Flow
                                  Lateral    Total  Time of Max      Inflow      Inflow     Balance
                                   Inflow   Inflow   Occurrence      Volume      Volume       Error
  Node                 Type           LPS      LPS  days hr:min    10^6 ltr    10^6 ltr     Percent
  -------------------------------------------------------------------------------------------------
  WS02001211           JUNCTION      7.35   387.67     0  00:49       0.207        5.77       0.549
  WS02001212           JUNCTION      0.00   387.67     0  00:50           0        5.73       0.294
  WS02001213           JUNCTION      0.00   387.67     0  00:50           0        5.72       0.387
  WS02003069           JUNCTION      0.32   882.86     0  03:07     0.00902        15.8       0.197
  WS02003072           JUNCTION      0.00   882.64     0  03:07           0        15.7       0.239
  WS02003073           JUNCTION      1.82   884.43     0  03:08      0.0514        15.7       0.271
  WS02003060           JUNCTION     16.53   882.88     0  03:06       0.466        15.8       0.186
  WS02003066           JUNCTION      0.00   670.68     0  03:05           0        9.67       0.053
  WS02003059           JUNCTION      0.00   387.69     0  00:47           0         5.7       0.656
  WS02003067           JUNCTION      0.00   670.58     0  03:06           0        9.68       0.108
  WS02004401           JUNCTION      0.00   673.12     0  03:03           0        9.95       0.245
  WS02004402           JUNCTION      0.00   672.52     0  03:03           0        9.92       0.228
  WS02004403           JUNCTION      0.00   672.47     0  03:03           0         9.9       0.204
  WS02004404           JUNCTION      0.16   672.44     0  03:03     0.00457        9.89       0.151
  WS02004406           JUNCTION      0.00   672.57     0  03:03           0        9.85       0.367
  WS02004409           JUNCTION      0.00   672.25     0  03:03           0         9.8       0.203
  WS02004410           JUNCTION      0.00   671.65     0  03:03           0        9.78       0.225
  WS02004411           JUNCTION      0.00   671.12     0  03:04           0        9.76       0.227
  WS02004412           JUNCTION      0.00   670.81     0  03:04           0        9.74       0.240
  WS02004413           JUNCTION      0.00   670.67     0  03:05           0        9.72       0.347
  WS02004405           JUNCTION      0.04   672.29     0  03:03     0.00107        9.87       0.225
  WS02006109           JUNCTION      1.23   663.86     0  03:02      0.0347          10       0.230
  WS02006110           JUNCTION      0.00   663.84     0  03:02           0          10       0.219
  WS02006111           JUNCTION      0.00   696.32     0  03:03           0        9.97       0.054
  WS02006112           JUNCTION     14.47   676.87     0  03:02      0.0629          10       0.319
  WS02006113           JUNCTION      0.00   665.17     0  03:02           0        9.98       0.118
  WS02006115           JUNCTION      0.00   677.26     0  03:02           0        9.99       0.239
  WS02006116           JUNCTION      0.00   674.29     0  03:02           0        9.97       0.224
  WS02006230           JUNCTION     10.28   397.38     0  06:21        0.29        8.15       0.199
  WS02006231           JUNCTION      0.00   387.09     0  06:21           0        7.87       0.177
  WS02006232           JUNCTION      0.00   387.09     0  06:21           0        7.89       0.225
  WS02006234           JUNCTION      0.00   387.09     0  06:21           0         7.9       0.138
  WS02006235           JUNCTION      0.00   387.09     0  06:21           0        7.94       0.153
  WS02006238           JUNCTION      0.00   313.77     0  07:19           0        6.29       0.146
  WS02006240           JUNCTION      0.00   328.69     0  02:01           0        6.29       0.260
  WS02006242           JUNCTION      0.00   343.74     0  02:01           0         6.3       0.299
  WS02006243           JUNCTION      0.00   357.33     0  02:01           0        6.31       0.221
  WS02006245           JUNCTION      0.00   366.39     0  02:00           0        6.32       0.190
  WS02006247           JUNCTION      0.00   372.91     0  02:00           0        6.33       0.168
  WS02006248           JUNCTION      0.00   377.84     0  02:00           0        6.34       0.126
  WS02006249           JUNCTION      0.00   481.01     0  03:01           0        8.82       0.165
  WS02006239           JUNCTION      0.00   313.76     0  07:20           0        6.29       0.238
  WS02006251           JUNCTION      0.08   481.26     0  03:01     0.00217        8.84       0.161
  WS02006252           JUNCTION      0.00   400.00     0  01:59           0        8.48       0.006
  WS02006253           JUNCTION      1.91    81.00     0  03:01     0.00814       0.364       2.307
  WS02006256           JUNCTION      0.00   300.00     0  00:00           0        5.82       0.054
  WS02004138           JUNCTION      0.00   380.00     0  00:30           0        5.59       0.071
  WS02004407           JUNCTION      0.00   672.53     0  03:03           0        9.81       0.091
  WS02006228           JUNCTION      0.00   662.65     0  03:02           0          10       0.164
  WS02006229           JUNCTION      0.00   660.95     0  03:02           0          10       0.130
  WS02006280           JUNCTION      0.00   375.54     0  03:02           0        1.89       0.004
  WS02006284           JUNCTION      0.10   375.54     0  03:02      0.0027        1.89       0.064
  WS02006287           JUNCTION      0.00   375.27     0  03:01           0        1.89       0.038
  WSF200               JUNCTION      0.00   670.73     0  03:05           0        9.67       0.057
  HS02004901           JUNCTION     17.47    17.47     0  03:01      0.0757      0.0759       2.380
  HS02004881           JUNCTION      7.55    79.19     0  03:01      0.0331       0.357       0.087
  HS02004876           JUNCTION     14.15    72.10     0  03:01      0.0636       0.324       0.171
  HS02004870           JUNCTION     14.17    58.27     0  03:01      0.0626       0.261       0.043
  HS02004862           JUNCTION     13.95    44.46     0  03:01      0.0685       0.198       0.089
  HS02004856           JUNCTION     10.64    30.79     0  03:01      0.0471       0.131       1.114
  HS02004852           JUNCTION      0.00    20.44     0  03:01           0       0.084       0.069
  HS02004848           JUNCTION     32.07    32.07     0  03:01       0.151       0.151       0.033
  HS02004842           JUNCTION      0.00    11.42     0  03:01           0      0.0801      19.389
  HS02004837           JUNCTION     30.75    41.91     0  03:01       0.288       0.355       0.229
  HS02004830           JUNCTION      0.15    41.84     0  03:01     0.00423       0.346       0.359
  HS02004824           JUNCTION     40.25    81.79     0  03:01       0.197       0.542       0.100
  HS02004817           JUNCTION      0.60    82.18     0  03:01      0.0169       0.558       3.079
  HS02004807           JUNCTION     26.15   107.25     0  03:01       0.115       0.657       0.656
  HS02004802           JUNCTION      0.00   106.49     0  03:01           0       0.653       0.618
  HS02004799           JUNCTION     21.02   227.51     0  03:01      0.0932        1.06       0.236
  HS02004792           JUNCTION     88.55   207.32     0  03:01       0.396       0.966       0.043
  HS02004788           JUNCTION     30.78   119.37     0  03:01       0.177       0.571       0.069
  HS02004785           JUNCTION      0.15    89.79     0  03:01     0.00423       0.396       0.125
  HS02004777           JUNCTION      0.03    90.24     0  03:01    0.000846       0.397       1.326
  HS02004770           JUNCTION     73.89    90.93     0  03:01       0.324       0.398       0.787
  HS02004480           JUNCTION      0.00   269.27     0  03:01           0        1.25       0.099
  HS02004479           JUNCTION      0.00    42.82     0  03:02           0       0.204       0.360
  HS02004478           JUNCTION      0.00   375.17     0  03:01           0        1.89       0.018
  YS02001745           JUNCTION    297.18   442.77     0  02:46        2.34        2.35       0.260
  YS02001748           JUNCTION      0.04   647.34     0  02:46     0.00127        2.34       0.803
  YS02001751           JUNCTION      0.01   401.08     0  02:40     0.00031        2.31       1.023
  YS02001754           JUNCTION      0.26   309.15     0  03:01     0.00733         2.3       1.086
  YS02001762           JUNCTION      0.00   364.71     0  02:59           0        2.23       0.946
  YS02001765           JUNCTION      0.00   364.62     0  02:59           0        2.23       1.094
  YS02001767           JUNCTION      0.54   364.50     0  02:59      0.0151        2.25       1.609
  YS02001770           JUNCTION    373.02   373.02     0  03:01        2.63        2.64       1.205
  YS02001774           JUNCTION      0.00   134.39     0  03:23           0       0.381       7.071
  YS02001779           JUNCTION      0.01   134.86     0  03:22    0.000141       0.349       4.582
  YS02001882           JUNCTION      0.00    29.69     0  02:45           0      0.0203      12.213
  YS02001884           JUNCTION      0.00    59.54     0  02:39           0      0.0571      11.941
  YS02001759           JUNCTION    359.84   718.85     0  03:00        2.43        4.62       0.497
  YS02001887           JUNCTION    453.35   453.59     0  03:01         2.8        2.83       0.298
  YS02001890           JUNCTION      0.00   453.52     0  03:01           0        2.79       0.330
  YS02001898           JUNCTION      0.00   453.64     0  03:01           0        2.77       0.117
  YS02001901           JUNCTION      0.00   453.65     0  03:01           0        2.77       0.246
  YS02001904           JUNCTION      0.00   453.48     0  03:01           0        2.77       0.226
  YS02001907           JUNCTION      0.00   871.80     0  02:59           0        6.12       0.397
  YS02001910           JUNCTION      0.00   445.96     0  02:54           0        3.37       0.346
  YS02001915           JUNCTION    263.65   445.91     0  02:54        1.96        3.39       0.178
  YS02001918           JUNCTION      0.00   211.72     0  02:54           0        1.44       0.131
  YS02001619           JUNCTION    257.27   257.27     0  03:01        1.95        1.95       0.614
  YS02001629           JUNCTION      0.00   218.65     0  02:52           0        1.65       1.721
  YS02001641           JUNCTION      0.00   462.05     0  02:53           0        3.87       0.542
  YS02001644           JUNCTION    282.70   803.30     0  03:36        2.25        6.73       0.388
  YS02001652           JUNCTION      0.00   375.65     0  03:00           0        2.06       1.129
  YS02001655           JUNCTION      0.15   416.39     0  02:38     0.00434        2.08       1.215
  YS02001920           JUNCTION      2.87   211.54     0  02:54      0.0809        1.43       0.205
  YS02001923           JUNCTION      0.04   235.75     0  02:54     0.00106        1.34       0.049
  YS02001926           JUNCTION      0.05   188.20     0  02:54     0.00147        1.34       0.248
  YS02001929           JUNCTION    129.40   129.40     0  03:01        1.34        1.34       0.040
  YS02001658           JUNCTION      0.00   660.12     0  02:44           0        2.11       0.829
  YS02001661           JUNCTION      0.00   715.79     0  02:59           0        2.79      -0.406
  YS02001664           JUNCTION    327.80   354.47     0  02:58        2.09        2.78       0.114
  YS02001622           JUNCTION      0.00   257.43     0  03:01           0        1.94       1.650
  YS02001633           JUNCTION    287.40   462.22     0  02:53        2.32        3.92       0.818
  YS02001649           JUNCTION      0.00   984.23     0  02:53           0        5.17       0.721
  YS02001757           JUNCTION      0.00  1881.69     0  02:54           0        11.3       0.821
  YS02001895           JUNCTION      0.00   453.53     0  03:01           0        2.78       0.177
  YS02001625           JUNCTION      0.00   257.36     0  03:01           0         1.9       2.062
  YS02163301           JUNCTION      0.00   227.45     0  02:42           0        1.63       1.483
  YS02163601           JUNCTION      0.11   462.21     0  02:53      0.0031        3.89       0.775
  YS02164001           JUNCTION      0.00   462.18     0  02:53           0        3.87       0.511
  YS02001647           JUNCTION      0.00   704.26     0  02:53           0        3.67       0.766
  YSB1154              JUNCTION     25.19    25.19     0  03:01       0.113       0.114       1.285
  YSB6556              JUNCTION      0.00    24.91     0  03:01           0       0.115       1.100
  YSB1174              JUNCTION     19.06    19.06     0  03:01      0.0821      0.0827       1.580
  YSB1171              JUNCTION      0.00    43.19     0  03:01           0       0.203       3.219
  YS02006553           JUNCTION      0.00   666.91     0  03:17           0         5.9       0.265
  YS02006561           JUNCTION      0.00   964.36     0  03:00           0        8.42       0.008
  YS02006556           JUNCTION      0.00   666.85     0  03:17           0         5.9       0.191
  YS02006558           JUNCTION    392.87   964.57     0  03:00        2.57        8.45       0.063
  YS02001783           JUNCTION      0.00   964.32     0  03:00           0        8.42       0.028
  YS02001784           JUNCTION      1.06   965.35     0  02:59      0.0299        8.44       0.045
  YS02001786           JUNCTION      0.06   965.30     0  03:00     0.00159        8.44       0.041
  YS02001788           JUNCTION      0.07   965.27     0  03:00       0.002        8.44       0.023
  YS02001790           JUNCTION      0.15   965.47     0  03:00     0.00437        8.44       0.030
  YS02001791           JUNCTION      0.00   965.47     0  03:00           0        8.44       0.014
  YS02001793           JUNCTION      0.00   965.64     0  03:00           0        8.44       0.004
  WS02004139           JUNCTION      0.32   380.41     0  00:30     0.00905        5.59       0.584
  WSC                  OUTFALL       0.00   884.47     0  03:08           0        15.7       0.000
  3                    OUTFALL       0.00   270.94     0  03:02           0        4.14       0.000
  4                    OUTFALL       0.00   234.65     0  03:02           0        2.47       0.000
  5                    OUTFALL       0.00     0.00     0  00:00           0           0       0.000 ltr
  JK-storage           STORAGE       0.00   965.63     0  03:00           0        8.59      -2.350
  CC-storage           STORAGE       0.00  1881.40     0  02:54           0        11.1      -0.249
  XR-storage           STORAGE     690.11   690.11     0  03:01        9.61        10.2      -0.000
  
  
  **********************
  Node Surcharge Summary
  **********************
  
  Surcharging occurs when water rises above the top of the highest conduit.
  ---------------------------------------------------------------------
                                               Max. Height   Min. Depth
                                   Hours       Above Crown    Below Rim
  Node                 Type      Surcharged         Meters       Meters
  ---------------------------------------------------------------------
  WS02004402           JUNCTION        0.01          0.002        1.738
  WS02004403           JUNCTION        0.04          0.004        2.026
  WS02004404           JUNCTION        0.86          0.066        2.714
  WS02004406           JUNCTION        0.51          0.036        2.414
  WS02004405           JUNCTION        0.68          0.052        2.748
  WS02006109           JUNCTION        5.81          0.289        1.531
  WS02006110           JUNCTION        1.24          0.115        1.735
  WS02006112           JUNCTION        1.37          0.208        1.472
  WS02006230           JUNCTION        0.81          0.102        1.468
  WS02006231           JUNCTION        1.14          0.129        1.401
  WS02006232           JUNCTION        5.80          0.260        1.220
  WS02006234           JUNCTION        1.40          0.152        1.088
  WS02006235           JUNCTION        5.79          0.189        1.101
  WS02006238           JUNCTION        5.79          0.211        1.219
  WS02006240           JUNCTION        1.49          0.110        1.280
  WS02006242           JUNCTION        5.78          0.147        0.673
  WS02006243           JUNCTION        1.15          0.048        0.722
  WS02006245           JUNCTION        0.31          0.012        0.838
  WS02006247           JUNCTION        0.47          0.016        0.744
  WS02006239           JUNCTION        2.10          0.138        1.152
  WS02006252           JUNCTION        5.88          0.193        0.907
  WS02006228           JUNCTION        5.81          0.351        1.849
  YS02001748           JUNCTION        4.16          1.190        0.000
  YS02001751           JUNCTION        5.10          1.200        0.000
  YS02001754           JUNCTION        5.28          1.150        0.000
  YS02001762           JUNCTION        5.63          1.074        0.076
  YS02001765           JUNCTION        5.60          1.021        0.079
  YS02001767           JUNCTION        5.47          0.967        0.063
  YS02001770           JUNCTION        5.40          0.920        0.000
  YS02001774           JUNCTION        5.63          1.014        0.036
  YS02001779           JUNCTION        5.26          0.680        0.000
  YS02001882           JUNCTION        0.79          0.610        0.220
  YS02001884           JUNCTION        0.83          0.648        0.222
  YS02001759           JUNCTION        5.66          1.117        0.093
  YS02001887           JUNCTION        0.92          0.736        0.214
  YS02001890           JUNCTION        0.95          0.755        0.005
  YS02001898           JUNCTION        0.75          0.524        0.216
  YS02001901           JUNCTION        0.88          0.672        0.198
  YS02001904           JUNCTION        0.86          0.636        0.214
  YS02001907           JUNCTION        1.48          0.950        0.000
  YS02001910           JUNCTION        1.00          0.775        0.325
  YS02001915           JUNCTION        0.78          0.588        0.412
  YS02001918           JUNCTION        0.53          0.266        0.544
  YS02001619           JUNCTION        5.13          0.610        0.000
  YS02001629           JUNCTION        5.14          0.470        0.000
  YS02001641           JUNCTION        5.61          0.973        0.127
  YS02001644           JUNCTION        5.62          0.920        0.000
  YS02001652           JUNCTION        5.31          1.130        0.000
  YS02001655           JUNCTION        5.14          1.200        0.000
  YS02001920           JUNCTION        0.56          0.339        0.801
  YS02001658           JUNCTION        4.21          1.300        0.000
  YS02001661           JUNCTION        0.21          1.390        0.000
  YS02001622           JUNCTION        5.16          0.620        0.000
  YS02001633           JUNCTION        5.60          0.979        0.081
  YS02001649           JUNCTION        5.64          1.050        0.000
  YS02001757           JUNCTION        5.74          1.210        0.000
  YS02001895           JUNCTION        0.76          0.557        0.193
  YS02001625           JUNCTION        5.36          0.780        0.000
  YS02163301           JUNCTION        5.49          0.912        0.118
  YS02163601           JUNCTION        5.64          1.061        0.019
  YS02164001           JUNCTION        5.61          0.987        0.113
  YS02001647           JUNCTION        5.33          0.813        0.087
  YS02006553           JUNCTION        1.55          0.964        0.226
  YS02006561           JUNCTION        0.66          0.284        0.866
  YS02006556           JUNCTION        1.20          0.880        0.470
  YS02006558           JUNCTION        1.17          0.859        0.541
  YS02001783           JUNCTION        1.28          1.350        0.250
  YS02001784           JUNCTION        1.32          1.200        0.290
  YS02001786           JUNCTION        1.29          1.146        0.284
  YS02001788           JUNCTION        1.28          1.143        0.337
  YS02001790           JUNCTION        2.66          1.157        0.000
  YS02001791           JUNCTION        2.78          0.920        1.000
  YS02001793           JUNCTION        2.99          1.307        1.293
  
  
  *********************
  Node Flooding Summary
  *********************
  
  Flooding refers to all water that overflows a node, whether it ponds or not.
  --------------------------------------------------------------------------
                                                             Total   Maximum
                                 Maximum   Time of Max       Flood    Ponded
                        Hours       Rate    Occurrence      Volume     Depth
  Node                 Flooded       LPS   days hr:min    10^6 ltr    Meters
  --------------------------------------------------------------------------
  YS02001748              0.01    244.28      0  02:47       0.001     0.000
  YS02001751              0.01     13.75      0  02:47       0.000     0.000
  YS02001754              0.01     15.80      0  02:47       0.000     0.000
  YS02001770              0.01      6.84      0  02:47       0.000     0.000
  YS02001779              1.83    134.78      0  03:22       0.327     0.000
  YS02001907              0.38    288.37      0  02:59       0.211     0.000
  YS02001619              0.01     25.84      0  02:43       0.000     0.000
  YS02001629              0.01     32.73      0  02:44       0.000     0.000
  YS02001644              2.97    803.09      0  03:36       3.674     0.000
  YS02001652              0.01      5.66      0  03:05       0.000     0.000
  YS02001655              0.01    142.92      0  02:41       0.000     0.000
  YS02001658              0.01    353.34      0  02:44       0.000     0.000
  YS02001661              0.01    144.63      0  03:04       0.000     0.000
  YS02001622              0.01     29.01      0  02:44       0.000     0.000
  YS02001649              0.08     42.90      0  03:12       0.004     0.000
  YS02001757              0.01     23.48      0  02:47       0.000     0.000
  YS02001625              0.80    164.91      0  03:01       0.215     0.000
  YS02001790              0.01    111.78      0  02:36       0.000     0.000
  JK-storage              2.34    665.47      0  03:01       2.977     0.000
  XR-storage              5.30    500.11      0  03:01       3.700     0.000
  
  
  **********************
  Storage Volume Summary
  **********************
  
  --------------------------------------------------------------------------------------------------
                         Average     Avg  Evap Exfil       Maximum     Max    Time of Max    Maximum
                          Volume    Pcnt  Pcnt  Pcnt        Volume    Pcnt     Occurrence    Outflow
  Storage Unit           1000 m3    Full  Loss  Loss       1000 m3    Full    days hr:min        LPS
  --------------------------------------------------------------------------------------------------
  JK-storage               0.172      59     0     0         0.291     100       0  02:37     300.00
  CC-storage               2.729      17     0     0         3.727      24       0  03:40     400.00
  XR-storage               0.872      94     0     0         0.926     100       0  02:32     380.00
  
  
  ***********************
  Outfall Loading Summary
  ***********************
  
  -----------------------------------------------------------
                         Flow       Avg       Max       Total
                         Freq      Flow      Flow      Volume
  Outfall Node           Pcnt       LPS       LPS    10^6 ltr
  -----------------------------------------------------------
  WSC                   99.99    633.46    884.47      15.707
  3                     95.31    196.99    270.94       4.137
  4                     91.66    120.50    234.65       2.472
  5                      0.00      0.00      0.00       0.000
  -----------------------------------------------------------
  System                71.74    950.94   1376.69      22.316
  
  
  ********************
  Link Flow Summary
  ********************
  
  -----------------------------------------------------------------------------
                                 Maximum  Time of Max   Maximum    Max/    Max/
                                  |Flow|   Occurrence   |Veloc|    Full    Full
  Link                 Type          LPS  days hr:min     m/sec    Flow   Depth
  -----------------------------------------------------------------------------
  WS02003066WSF200     CONDUIT    670.73     0  03:05      2.88    0.11    0.26
  WS02006287WS02006284 CONDUIT    375.44     0  03:02      1.98    0.17    0.29
  WS02006284WS02006280 CONDUIT    375.54     0  03:02      2.22    0.16    0.27
  WS02006280WS02006229 CONDUIT    375.58     0  03:02      3.58    0.08    0.19
  WS02006229WS02006228 CONDUIT    662.65     0  03:02      1.32    2.19    1.00
  WS02006256WS02006235 CONDUIT    166.25     0  00:01      2.58    1.76    1.00
  WS02006253WS02006251 CONDUIT     80.87     0  03:01      0.46    0.24    1.00
  WS02006252WS02006251 CONDUIT    400.48     0  07:03      3.19    1.47    1.00
  WS02006251WS02006249 CONDUIT    481.01     0  03:01      1.26    1.39    0.97
  WS02006249WS02006248 CONDUIT    377.84     0  02:00      1.22    2.07    0.93
  WS02006248WS02006247 CONDUIT    372.91     0  02:00      1.20    0.81    0.97
  WS02006247WS02006245 CONDUIT    366.39     0  02:00      1.16    2.91    1.00
  WS02006245WS02006243 CONDUIT    357.33     0  02:01      1.22    1.06    1.00
  WS02006243WS02006242 CONDUIT    343.74     0  02:01      1.05    0.73    1.00
  WS02006242WS02006240 CONDUIT    328.69     0  02:01      0.93    1.31    1.00
  WS02006240WS02006239 CONDUIT    313.76     0  07:20      0.91    0.99    1.00
  WS02006239WS02006238 CONDUIT    313.77     0  07:19      0.82    1.00    1.00
  WS02006238WS02006235 CONDUIT    313.77     0  07:20      1.25    0.70    1.00
  WS02006235WS02006234 CONDUIT    387.09     0  06:21      1.04    4.08    1.00
  WS02006234WS02006232 CONDUIT    387.09     0  06:21      1.13    0.78    1.00
  WS02006232WS02006231 CONDUIT    387.09     0  06:21      1.05    0.81    1.00
  WS02006231WS02006230 CONDUIT    387.10     0  06:21      1.25    5.87    1.00
  WS02006230WS02006229 CONDUIT    397.39     0  06:21      1.03    8.84    1.00
  WS02006228WS02006109 CONDUIT    662.63     0  03:02      1.32    2.90    1.00
  WS02006116WS02004401 CONDUIT    673.12     0  03:03      0.86    0.93    0.98
  WS02006115WS02006116 CONDUIT    674.29     0  03:02      0.91    0.87    0.91
  WS02006113WS02006111 CONDUIT    696.32     0  03:03      2.59    0.83    0.55
  WS02006112WS02006115 CONDUIT    677.26     0  03:02      0.88    0.40    0.95
  WS02006111WS02006112 CONDUIT    665.21     0  03:02      1.72    0.32    0.73
  WS02006110WS02006113 CONDUIT    665.17     0  03:02      1.51    0.61    0.82
  WS02006109WS02006110 CONDUIT    663.84     0  03:02      1.32    1.28    1.00
  WS02004411WS02004412 CONDUIT    670.81     0  03:04      1.04    0.95    0.77
  WS02004401WS02004402 CONDUIT    672.52     0  03:03      0.86    0.81    0.99
  WS02004413WS02003067 CONDUIT    670.58     0  03:06      1.26    0.29    0.64
  WS02004412WS02004413 CONDUIT    670.67     0  03:05      0.95    0.45    0.84
  WS02004410WS02004411 CONDUIT    671.12     0  03:04      1.04    0.92    0.77
  WS02004409WS02004410 CONDUIT    671.65     0  03:03      1.05    0.87    0.76
  WS02004407WS02004409 CONDUIT    672.25     0  03:03      1.53    0.24    0.55
  WS02004406WS02004407 CONDUIT    672.53     0  03:03      1.21    0.30    0.67
  WS02004405WS02004406 CONDUIT    672.57     0  03:03      0.86    1.33    1.00
  WS02004404WS02004405 CONDUIT    672.25     0  03:03      0.86    6.59    1.00
  WS02004403WS02004404 CONDUIT    672.28     0  03:03      0.86    0.49    1.00
  WS02004402WS02004403 CONDUIT    672.47     0  03:03      0.86    0.97    1.00
  WS02004139WS02001211 CONDUIT    380.32     0  00:49      0.69    0.48    0.57
  WS02004138WS02004139 CONDUIT    380.09     0  00:30      2.94    0.08    0.42
  WS02003067WS02003066 CONDUIT    670.68     0  03:05      1.37    0.21    0.45
  WS02001213WS02003059 CONDUIT    387.69     0  00:47      0.68    0.64    0.71
  WS02001212WS02001213 CONDUIT    387.67     0  00:50      1.32    0.60    0.40
  WS02001211WS02001212 CONDUIT    387.67     0  00:50      0.78    0.30    0.60
  WS02003072WS02003073 CONDUIT    882.61     0  03:08      1.69    1.91    0.47
  WS02003069WS02003072 CONDUIT    882.64     0  03:07      1.59    0.42    0.49
  WS02003060WS02003069 CONDUIT    882.54     0  03:07      1.84    0.35    0.44
  WS02003059WS02003060 CONDUIT    387.68     0  00:48      0.95    0.25    0.63
  HS02004901HS02004770 CONDUIT     17.71     0  03:01      0.07    0.07    0.39
  HS02004876HS02004881 CONDUIT     71.90     0  03:01      0.92    0.76    0.11
  HS02004870HS02004876 CONDUIT     58.03     0  03:01      0.63    0.04    0.13
  HS02004842HS02004848 CONDUIT     11.42     0  03:01      0.05    0.01    0.30
  HS02004837HS02004842 CONDUIT     11.94     0  03:02      0.41    0.01    0.32
  HS02004830HS02004837 CONDUIT     41.69     0  03:01      0.56    0.04    0.11
  HS02004824HS02004830 CONDUIT     41.67     0  03:01      0.58    0.05    0.10
  HS02004817HS02004824 CONDUIT     81.58     0  03:01      0.25    0.04    0.47
  HS02004770HS02004777 CONDUIT     90.21     0  03:01      0.32    0.16    0.41
  HS02004799HS02004480 CONDUIT    226.97     0  03:01      0.78    0.29    0.42
  HS02004792HS02004799 CONDUIT    206.60     0  03:01      0.88    0.13    0.33
  HS02004788HS02004792 CONDUIT    118.94     0  03:01      1.01    0.08    0.17
  HS02004785HS02004788 CONDUIT     89.52     0  03:02      0.66    0.67    0.19
  HS02004777HS02004785 CONDUIT     89.64     0  03:01      0.38    0.11    0.33
  HS02004480HS02004478 CONDUIT    269.12     0  03:01      1.20    1.13    0.32
  HS02004479HS02004480 CONDUIT     44.17     0  03:02      0.23    0.04    0.40
  HS02004862HS02004870 CONDUIT     44.23     0  03:01      0.64    0.05    0.10
  HS02004848HS02004852 CONDUIT     20.44     0  03:01      0.44    0.02    0.07
  HS02004856HS02004862 CONDUIT     30.57     0  03:01      0.47    0.03    0.09
  HS02004852HS02004856 CONDUIT     20.26     0  03:01      0.24    0.02    0.12
  HS02004802HS02004478 CONDUIT    106.59     0  03:02      0.45    0.09    0.35
  HS02004478WS02006287 CONDUIT    375.27     0  03:01      1.68    0.11    0.25
  HS02004817HS02004807 CONDUIT     82.18     0  03:01      0.19    0.05    0.62
  HS02004807HS02004802 CONDUIT    106.49     0  03:01      0.38    0.20    0.40
  YS02001759YS02001757 CONDUIT    719.60     0  03:00      0.92    0.51    1.00
  YS02001762YS02001759 CONDUIT    364.68     0  02:59      0.46    0.42    1.00
  YS02001765YS02001762 CONDUIT    364.71     0  02:59      0.46    0.34    1.00
  YS02001770YS02001767 CONDUIT    363.96     0  02:59      0.46    1.44    1.00
  YS02001774YS02001770 CONDUIT    134.39     0  03:23      0.18    0.09    1.00
  YS02001779YS02001774 CONDUIT    134.86     0  03:22      0.17    0.07    1.00
  YS02001649YS02001757 CONDUIT    984.29     0  02:53      1.25    0.60    1.00
  YS02001767YS02001765 CONDUIT    364.62     0  02:59      0.46    0.46    1.00
  YS02006561YS02001783 CONDUIT    964.32     0  03:00      2.11    0.50    1.00
  YS02001783YS02001784 CONDUIT    964.29     0  02:59      1.92    1.33    1.00
  YS02001784YS02001785 CONDUIT    965.24     0  03:00      1.92    2.25    1.00
  YS02001788YS02001790 CONDUIT    965.32     0  03:00      2.30    0.71    1.00
  YS02001790YS02001791 CONDUIT    965.47     0  03:00      2.78    1.05    1.00
  YS02001791YS02001793 CONDUIT    965.64     0  03:00      5.57    0.41    1.00
  YS02001910YS02001907 CONDUIT    445.90     0  02:54      0.57    0.25    1.00
  YS02001786YS02001788 CONDUIT    965.20     0  03:00      2.21    1.86    1.00
  YS02001915YS02001910 CONDUIT    445.96     0  02:54      0.57    0.22    1.00
  YS02001918YS02001915 CONDUIT    211.72     0  02:54      0.44    0.12    1.00
  YS02001923YS02001920 CONDUIT    208.67     0  02:54      0.68    0.09    1.00
  YS02001926YS02001923 CONDUIT    235.71     0  02:54      0.79    0.34    0.89
  YS02001929YS02001926 CONDUIT    188.15     0  02:54      0.84    0.09    0.80
  YS02001920YS02001918 CONDUIT    211.72     0  02:54      0.67    0.20    1.00
  YS02001629YS02163301 CONDUIT    227.45     0  02:42      0.29    0.28    1.00
  YS02001619YS02001622 CONDUIT    257.43     0  03:01      0.61    0.38    1.00
  YS02001622YS02001625 CONDUIT    257.36     0  03:01      0.33    0.14    1.00
  YS02001625YS02001629 CONDUIT    218.65     0  02:52      0.28    0.10    1.00
  YS02163301YS02001633 CONDUIT    227.31     0  02:42      0.29    0.21    1.00
  YS02163601YS02164001 CONDUIT    462.18     0  02:53      0.59    0.41    1.00
  YS02164001YS02001641 CONDUIT    462.05     0  02:53      0.59    0.63    1.00
  YS02001641YS02001644 CONDUIT    462.16     0  02:53      0.59    1.49    1.00
  YS02001647YS02001649 CONDUIT    704.21     0  02:53      0.90    0.37    1.00
  YS02006553YS02006556 CONDUIT    666.85     0  03:17      0.85    0.57    1.00
  YS02006556YS02006558 CONDUIT    667.21     0  03:17      0.85    0.53    1.00
  YSB6556YSB1171       CONDUIT     24.81     0  03:03      0.09    0.03    0.67
  YS02001907YS02006553 CONDUIT    666.91     0  03:17      0.74    0.78    1.00
  YS02006558YS02006561 CONDUIT    964.36     0  03:00      3.41    2.13    1.00
  YS02001633YS02163601 CONDUIT    462.10     0  02:53      0.59    0.49    1.00
  YS02001644YS02001647 CONDUIT    704.26     0  02:53      0.90    0.41    1.00
  YS02001745YS02001748 CONDUIT    647.30     0  02:46      1.48    0.25    0.93
  YS02001748YS02001751 CONDUIT    401.07     0  02:40      1.05    0.20    1.00
  YS02001751YS02001754 CONDUIT    308.89     0  03:01      0.88    0.15    1.00
  YS02001754YS02001757 CONDUIT    309.18     0  03:01      0.39    0.12    1.00
  YS02001882YS02001884 CONDUIT     29.69     0  02:45      0.09    0.03    1.00
  YS02001884YS02001887 CONDUIT     59.54     0  02:39      0.08    0.08    1.00
  YS02001890YS02001895 CONDUIT    453.53     0  03:01      0.58    0.21    1.00
  YS02001895YS02001898 CONDUIT    453.64     0  03:01      0.58    0.79    1.00
  YS02001898YS02001901 CONDUIT    453.65     0  03:01      0.58    0.29    1.00
  YS02001901YS02001904 CONDUIT    453.48     0  03:01      0.58    0.70    1.00
  YS02001904YS02001907 CONDUIT    453.54     0  03:01      0.58    0.16    1.00
  YS02001887YS02001890 CONDUIT    453.52     0  03:01      0.58    0.78    1.00
  YS02001652YS02001649 CONDUIT    375.91     0  03:00      0.50    0.19    1.00
  YS02001655YS02001652 CONDUIT    375.65     0  03:00      0.93    0.18    1.00
  YS02001658YS02001655 CONDUIT    416.23     0  02:38      1.21    0.18    1.00
  YS02001661YS02001658 CONDUIT    660.12     0  02:44      1.56    0.26    1.00
  YS02001664YS02001661 CONDUIT    715.79     0  02:59      1.63    0.22    0.70
  YSB1154YSB6556       CONDUIT     24.91     0  03:01      0.18    0.04    0.56
  YSB1174YSB1171       CONDUIT     18.78     0  03:01      0.07    0.03    0.68
  YSB1171HS02004479    CONDUIT     42.82     0  03:02      0.54    0.03    0.53
  HS02004881HS02006253 CONDUIT     79.15     0  03:01      1.60    0.02    0.31
  YS02001793JiankangQianchi CONDUIT    965.63     0  03:00     13.02    0.08    1.00
  YS02001757CaochengTiaoxuchi CONDUIT   1881.40     0  02:54      2.61    0.83    1.00
  WSF200WS02003060     CONDUIT    670.99     0  03:05      1.89    0.15    0.35
  1                    CONDUIT    884.47     0  03:08      3.22    0.31    0.38
  2                    CONDUIT    234.65     0  03:02      6.07    0.56    0.54
  3                    CONDUIT    270.94     0  03:02      8.50    0.43    0.46
  4                    CONDUIT      0.00     0  00:00      0.00    0.00    0.00
  CC-Pump-1            PUMP       200.00     0  01:59              1.00
  CC-Pump-2            PUMP       200.00     0  01:59              1.00
  JK-Pump-1            PUMP       110.04     0  07:23              0.37
  JK-Pump-2            PUMP       300.00     0  00:00              1.00
  XR-Pump-1            PUMP        95.00     0  00:00              1.00
  XR-Pump-2            PUMP        95.00     0  00:30              1.00
  XR-Pump-3            PUMP        95.00     0  00:30              1.00
  XR-Pump-4            PUMP        95.00     0  00:00              1.00
  
  
  ***************************
  Flow Classification Summary
  ***************************
  
  -------------------------------------------------------------------------------------
                      Adjusted    ---------- Fraction of Time in Flow Class ---------- 
                       /Actual         Up    Down  Sub   Sup   Up    Down  Norm  Inlet 
  Conduit               Length    Dry  Dry   Dry   Crit  Crit  Crit  Crit  Ltd   Ctrl  
  -------------------------------------------------------------------------------------
  WS02003066WSF200        1.00   0.04  0.02  0.00  0.00  0.94  0.00  0.00  0.60  0.00
  WS02006287WS02006284    1.00   0.04  0.01  0.00  0.57  0.38  0.00  0.00  0.65  0.00
  WS02006284WS02006280    1.00   0.05  0.00  0.00  0.00  0.00  0.00  0.95  0.00  0.00
  WS02006280WS02006229    1.00   0.05  0.00  0.00  0.00  0.00  0.00  0.95  0.00  0.00
  WS02006229WS02006228    1.00   0.00  0.00  0.00  0.99  0.00  0.00  0.01  0.00  0.00
  WS02006256WS02006235    1.00   0.00  0.00  0.00  1.00  0.00  0.00  0.00  0.00  0.00
  WS02006253WS02006251    1.00   0.03  0.01  0.00  0.96  0.00  0.00  0.00  0.00  0.00
  WS02006252WS02006251    1.00   0.07  0.00  0.00  0.00  0.00  0.93  0.00  0.00  0.00
  WS02006251WS02006249    1.00   0.00  0.00  0.00  1.00  0.00  0.00  0.00  0.22  0.00
  WS02006249WS02006248    1.00   0.00  0.02  0.00  0.92  0.00  0.05  0.00  0.00  0.00
  WS02006248WS02006247    1.00   0.02  0.00  0.00  0.98  0.00  0.00  0.00  0.10  0.00
  WS02006247WS02006245    1.00   0.02  0.00  0.00  0.98  0.00  0.00  0.00  0.00  0.00
  WS02006245WS02006243    1.00   0.01  0.00  0.00  0.95  0.00  0.00  0.03  0.01  0.00
  WS02006243WS02006242    1.00   0.01  0.00  0.00  0.99  0.00  0.00  0.00  0.20  0.00
  WS02006242WS02006240    1.00   0.00  0.00  0.00  1.00  0.00  0.00  0.00  0.00  0.00
  WS02006240WS02006239    1.00   0.00  0.00  0.00  0.97  0.00  0.00  0.03  0.01  0.00
  WS02006239WS02006238    1.00   0.00  0.00  0.00  1.00  0.00  0.00  0.00  0.02  0.00
  WS02006238WS02006235    1.00   0.00  0.00  0.00  1.00  0.00  0.00  0.00  0.00  0.00
  WS02006235WS02006234    1.00   0.00  0.00  0.00  0.96  0.00  0.04  0.00  0.00  0.00
  WS02006234WS02006232    1.00   0.00  0.00  0.00  1.00  0.00  0.00  0.00  0.03  0.00
  WS02006232WS02006231    1.00   0.00  0.00  0.00  0.99  0.00  0.00  0.00  0.00  0.00
  WS02006231WS02006230    1.00   0.00  0.00  0.00  0.93  0.00  0.07  0.00  0.00  0.00
  WS02006230WS02006229    1.00   0.00  0.00  0.00  0.99  0.00  0.00  0.01  0.01  0.00
  WS02006228WS02006109    1.00   0.00  0.00  0.00  1.00  0.00  0.00  0.00  0.00  0.00
  WS02006116WS02004401    1.00   0.03  0.00  0.00  0.97  0.00  0.00  0.00  0.00  0.00
  WS02006115WS02006116    1.00   0.03  0.00  0.00  0.97  0.00  0.00  0.01  0.00  0.00
  WS02006113WS02006111    1.00   0.02  0.00  0.00  0.00  0.98  0.00  0.00  0.09  0.00
  WS02006112WS02006115    1.00   0.02  0.00  0.00  0.97  0.00  0.00  0.00  0.00  0.00
  WS02006111WS02006112    1.00   0.02  0.00  0.00  0.97  0.00  0.00  0.00  0.90  0.00
  WS02006110WS02006113    1.00   0.01  0.01  0.00  0.98  0.00  0.00  0.00  0.00  0.00
  WS02006109WS02006110    1.00   0.00  0.01  0.00  0.98  0.00  0.01  0.00  0.00  0.00
  WS02004411WS02004412    1.00   0.04  0.00  0.00  0.96  0.00  0.00  0.00  0.00  0.00
  WS02004401WS02004402    1.00   0.03  0.00  0.00  0.97  0.00  0.00  0.00  0.00  0.00
  WS02004413WS02003067    1.00   0.04  0.01  0.00  0.00  0.00  0.95  0.00  0.00  0.00
  WS02004412WS02004413    1.00   0.04  0.00  0.00  0.96  0.00  0.00  0.00  0.03  0.00
  WS02004410WS02004411    1.00   0.04  0.00  0.00  0.96  0.00  0.00  0.00  0.03  0.00
  WS02004409WS02004410    1.00   0.04  0.00  0.00  0.96  0.00  0.00  0.00  0.03  0.00
  WS02004407WS02004409    1.00   0.04  0.00  0.00  0.96  0.00  0.00  0.00  0.89  0.00
  WS02004406WS02004407    1.00   0.00  0.04  0.00  0.96  0.00  0.00  0.00  0.00  0.00
  WS02004405WS02004406    1.00   0.00  0.00  0.00  1.00  0.00  0.00  0.00  0.01  0.00
  WS02004404WS02004405    1.00   0.00  0.00  0.00  1.00  0.00  0.00  0.00  0.00  0.00
  WS02004403WS02004404    1.00   0.00  0.03  0.00  0.97  0.00  0.00  0.00  0.01  0.00
  WS02004402WS02004403    1.00   0.03  0.00  0.00  0.97  0.00  0.00  0.00  0.00  0.00
  WS02004139WS02001211    1.00   0.00  0.00  0.00  1.00  0.00  0.00  0.00  0.00  0.00
  WS02004138WS02004139    1.00   0.00  0.00  0.00  0.99  0.01  0.00  0.00  1.00  0.00
  WS02003067WS02003066    1.00   0.05  0.01  0.00  0.94  0.00  0.00  0.00  0.00  0.00
  WS02001213WS02003059    1.00   0.00  0.00  0.00  0.99  0.00  0.00  0.00  0.00  0.00
  WS02001212WS02001213    1.00   0.00  0.00  0.00  0.90  0.00  0.09  0.00  0.00  0.00
  WS02001211WS02001212    1.00   0.00  0.00  0.00  1.00  0.00  0.00  0.00  0.00  0.00
  WS02003072WS02003073    1.00   0.00  0.00  0.00  0.00  0.00  0.00  1.00  0.00  0.00
  WS02003069WS02003072    1.00   0.00  0.00  0.00  0.99  0.01  0.00  0.00  0.18  0.00
  WS02003060WS02003069    1.00   0.00  0.00  0.00  0.99  0.01  0.00  0.00  0.10  0.00
  WS02003059WS02003060    1.00   0.00  0.00  0.00  1.00  0.00  0.00  0.00  0.01  0.00
  HS02004901HS02004770    1.00   0.04  0.00  0.00  0.96  0.00  0.00  0.00  0.00  0.00
  HS02004876HS02004881    1.00   0.02  0.00  0.00  0.89  0.09  0.00  0.00  0.00  0.00
  HS02004870HS02004876    1.00   0.01  0.00  0.00  0.99  0.00  0.00  0.00  0.95  0.00
  HS02004842HS02004848    1.00   0.00  0.04  0.00  0.96  0.00  0.00  0.00  0.58  0.00
  HS02004837HS02004842    1.00   0.00  0.00  0.00  0.99  0.01  0.00  0.00  0.11  0.00
  HS02004830HS02004837    1.00   0.00  0.00  0.00  1.00  0.00  0.00  0.00  0.99  0.00
  HS02004824HS02004830    1.00   0.00  0.00  0.00  1.00  0.00  0.00  0.00  0.00  0.00
  HS02004817HS02004824    1.00   0.00  0.00  0.00  1.00  0.00  0.00  0.00  1.00  0.00
  HS02004770HS02004777    1.00   0.00  0.04  0.00  0.96  0.00  0.00  0.00  0.03  0.00
  HS02004799HS02004480    1.00   0.00  0.02  0.00  0.95  0.00  0.02  0.00  0.00  0.00
  HS02004792HS02004799    1.00   0.00  0.00  0.00  0.99  0.01  0.00  0.00  0.98  0.00
  HS02004788HS02004792    1.00   0.00  0.00  0.00  0.99  0.01  0.00  0.00  0.98  0.00
  HS02004785HS02004788    1.00   0.00  0.00  0.00  1.00  0.00  0.00  0.00  0.00  0.00
  HS02004777HS02004785    1.00   0.00  0.00  0.00  1.00  0.00  0.00  0.00  0.14  0.00
  HS02004480HS02004478    1.00   0.04  0.00  0.00  0.64  0.00  0.00  0.32  0.00  0.00
  HS02004479HS02004480    1.00   0.03  0.00  0.00  0.97  0.00  0.00  0.00  0.12  0.00
  HS02004862HS02004870    1.00   0.00  0.00  0.00  1.00  0.00  0.00  0.00  0.05  0.00
  HS02004848HS02004852    1.00   0.04  0.00  0.00  0.96  0.00  0.00  0.00  0.61  0.00
  HS02004856HS02004862    1.00   0.00  0.06  0.00  0.94  0.00  0.00  0.00  0.80  0.00
  HS02004852HS02004856    1.00   0.04  0.00  0.00  0.95  0.00  0.00  0.00  0.85  0.00
  HS02004802HS02004478    1.00   0.04  0.00  0.00  0.95  0.00  0.00  0.00  0.03  0.00
  HS02004478WS02006287    1.00   0.05  0.00  0.00  0.70  0.24  0.00  0.00  0.66  0.00
  HS02004817HS02004807    1.00   0.00  0.04  0.00  0.96  0.00  0.00  0.00  0.01  0.00
  HS02004807HS02004802    1.00   0.04  0.00  0.00  0.95  0.00  0.00  0.00  0.00  0.00
  YS02001759YS02001757    1.00   0.00  0.00  0.00  1.00  0.00  0.00  0.00  0.16  0.00
  YS02001762YS02001759    1.00   0.00  0.00  0.00  1.00  0.00  0.00  0.00  0.04  0.00
  YS02001765YS02001762    1.00   0.00  0.00  0.00  1.00  0.00  0.00  0.00  0.16  0.00
  YS02001770YS02001767    1.00   0.00  0.00  0.00  1.00  0.00  0.00  0.00  0.00  0.00
  YS02001774YS02001770    1.00   0.00  0.04  0.00  0.95  0.00  0.00  0.00  0.04  0.00
  YS02001779YS02001774    1.00   0.00  0.00  0.00  1.00  0.00  0.00  0.00  0.21  0.00
  YS02001649YS02001757    1.00   0.00  0.00  0.00  1.00  0.00  0.00  0.00  0.17  0.00
  YS02001767YS02001765    1.00   0.00  0.00  0.00  1.00  0.00  0.00  0.00  0.00  0.00
  YS02006561YS02001783    1.00   0.06  0.00  0.00  0.45  0.49  0.00  0.00  0.56  0.00
  YS02001783YS02001784    1.00   0.00  0.06  0.00  0.94  0.00  0.00  0.00  0.01  0.00
  YS02001784YS02001785    1.00   0.00  0.00  0.00  1.00  0.00  0.00  0.00  0.20  0.00
  YS02001788YS02001790    1.00   0.00  0.00  0.00  0.55  0.45  0.00  0.00  0.50  0.00
  YS02001790YS02001791    1.00   0.00  0.00  0.00  0.52  0.48  0.00  0.00  0.37  0.00
  YS02001791YS02001793    1.00   0.00  0.00  0.00  0.53  0.47  0.00  0.00  0.02  0.00
  YS02001910YS02001907    1.00   0.00  0.00  0.00  0.97  0.00  0.00  0.02  0.13  0.00
  YS02001786YS02001788    1.00   0.00  0.00  0.00  0.53  0.47  0.00  0.00  0.00  0.00
  YS02001915YS02001910    1.00   0.00  0.00  0.00  0.99  0.01  0.00  0.00  0.18  0.00
  YS02001918YS02001915    1.00   0.00  0.01  0.00  0.98  0.01  0.00  0.00  0.58  0.00
  YS02001923YS02001920    1.00   0.00  0.00  0.00  1.00  0.00  0.00  0.00  0.85  0.00
  YS02001926YS02001923    1.00   0.00  0.03  0.00  0.15  0.00  0.82  0.00  0.00  0.00
  YS02001929YS02001926    1.00   0.00  0.04  0.00  0.96  0.00  0.00  0.00  0.78  0.00
  YS02001920YS02001918    1.00   0.00  0.01  0.00  0.99  0.00  0.00  0.00  0.00  0.00
  YS02001629YS02163301    1.00   0.05  0.00  0.00  0.95  0.00  0.00  0.00  0.00  0.00
  YS02001619YS02001622    1.00   0.04  0.00  0.00  0.96  0.00  0.00  0.00  0.00  0.00
  YS02001622YS02001625    1.00   0.04  0.00  0.00  0.96  0.00  0.00  0.00  0.07  0.00
  YS02001625YS02001629    1.00   0.04  0.02  0.00  0.93  0.00  0.01  0.00  0.00  0.00
  YS02163301YS02001633    1.00   0.00  0.05  0.00  0.95  0.00  0.00  0.00  0.00  0.00
  YS02163601YS02164001    1.00   0.00  0.04  0.00  0.96  0.00  0.00  0.00  0.00  0.00
  YS02164001YS02001641    1.00   0.01  0.03  0.00  0.96  0.00  0.00  0.00  0.06  0.00
  YS02001641YS02001644    1.00   0.00  0.01  0.00  0.99  0.00  0.00  0.00  0.00  0.00
  YS02001647YS02001649    1.00   0.00  0.06  0.00  0.94  0.00  0.00  0.00  0.01  0.00
  YS02006553YS02006556    1.00   0.01  0.00  0.00  0.99  0.00  0.00  0.00  0.03  0.00
  YS02006556YS02006558    1.00   0.00  0.00  0.00  1.00  0.00  0.00  0.00  0.00  0.00
  YSB6556YSB1171          1.00   0.03  0.01  0.00  0.96  0.00  0.00  0.00  0.00  0.00
  YS02001907YS02006553    1.00   0.00  0.02  0.00  0.98  0.00  0.00  0.00  0.00  0.00
  YS02006558YS02006561    1.00   0.06  0.00  0.00  0.19  0.75  0.00  0.00  0.48  0.00
  YS02001633YS02163601    1.00   0.00  0.01  0.00  0.99  0.00  0.00  0.00  0.16  0.00
  YS02001644YS02001647    1.00   0.00  0.06  0.00  0.94  0.00  0.00  0.00  0.00  0.00
  YS02001745YS02001748    1.00   0.00  0.00  0.00  0.89  0.01  0.00  0.10  0.06  0.00
  YS02001748YS02001751    1.00   0.00  0.00  0.00  0.98  0.02  0.00  0.00  0.15  0.00
  YS02001751YS02001754    1.00   0.00  0.00  0.00  0.94  0.00  0.00  0.06  0.02  0.00
  YS02001754YS02001757    1.00   0.00  0.00  0.00  0.99  0.01  0.00  0.00  0.20  0.00
  YS02001882YS02001884    1.00   0.05  0.00  0.00  0.95  0.00  0.00  0.00  0.00  0.00
  YS02001884YS02001887    1.00   0.03  0.01  0.00  0.96  0.00  0.00  0.00  0.00  0.00
  YS02001890YS02001895    1.00   0.00  0.05  0.00  0.95  0.00  0.00  0.00  0.00  0.00
  YS02001895YS02001898    1.00   0.05  0.00  0.00  0.94  0.00  0.01  0.00  0.00  0.00
  YS02001898YS02001901    1.00   0.05  0.00  0.00  0.95  0.00  0.00  0.00  0.02  0.00
  YS02001901YS02001904    1.00   0.05  0.00  0.00  0.95  0.00  0.00  0.00  0.00  0.00
  YS02001904YS02001907    1.00   0.00  0.05  0.00  0.95  0.00  0.00  0.00  0.00  0.00
  YS02001887YS02001890    1.00   0.00  0.00  0.00  0.97  0.00  0.02  0.00  0.00  0.00
  YS02001652YS02001649    1.00   0.00  0.00  0.00  1.00  0.00  0.00  0.00  0.18  0.00
  YS02001655YS02001652    1.00   0.00  0.00  0.00  0.94  0.00  0.00  0.06  0.02  0.00
  YS02001658YS02001655    1.00   0.00  0.05  0.00  0.93  0.02  0.00  0.00  0.11  0.00
  YS02001661YS02001658    1.00   0.05  0.00  0.00  0.89  0.07  0.00  0.00  0.08  0.00
  YS02001664YS02001661    1.00   0.04  0.00  0.00  0.83  0.12  0.00  0.00  0.24  0.00
  YSB1154YSB6556          1.00   0.04  0.00  0.00  0.96  0.00  0.00  0.00  0.02  0.00
  YSB1174YSB1171          1.00   0.03  0.01  0.00  0.96  0.00  0.00  0.00  0.00  0.00
  YSB1171HS02004479       1.00   0.03  0.00  0.00  0.97  0.00  0.00  0.00  0.11  0.00
  HS02004881HS02006253    1.00   0.03  0.00  0.00  0.92  0.00  0.00  0.05  0.75  0.00
  YS02001793JiankangQianchi    1.00   0.00  0.00  0.00  0.70  0.30  0.00  0.00  0.13  0.00
  YS02001757CaochengTiaoxuchi    1.00   0.00  0.07  0.00  0.86  0.07  0.00  0.00  0.00  0.00
  WSF200WS02003060        1.00   0.00  0.04  0.00  0.06  0.90  0.00  0.00  0.15  0.00
  1                       1.00   0.00  0.00  0.00  0.00  1.00  0.00  0.00  0.12  0.00
  2                       1.00   0.08  0.00  0.00  0.00  0.92  0.00  0.00  0.00  0.00
  3                       1.00   0.05  0.00  0.00  0.00  0.95  0.00  0.00  0.22  0.00
  4                       1.00   1.00  0.00  0.00  0.00  0.00  0.00  0.00  0.00  0.00
  
  
  *************************
  Conduit Surcharge Summary
  *************************
  
  ----------------------------------------------------------------------------
                                                           Hours        Hours 
                         --------- Hours Full --------   Above Full   Capacity
  Conduit                Both Ends  Upstream  Dnstream   Normal Flow   Limited
  ----------------------------------------------------------------------------
  WS02006229WS02006228        5.81      5.81      5.81      5.90         5.81
  WS02006256WS02006235        6.09      6.09      7.58      0.36         0.01
  WS02006253WS02006251        0.12      0.12      0.97      0.01         0.01
  WS02006252WS02006251        5.86      5.86      5.88      5.88         0.01
  WS02006251WS02006249        0.01      0.33      0.01      5.86         0.01
  WS02006249WS02006248        0.01      0.01      0.01      5.88         0.01
  WS02006248WS02006247        0.01      0.01      0.47      0.01         0.01
  WS02006247WS02006245        0.31      0.80      0.31      5.88         0.31
  WS02006245WS02006243        0.61      0.61      1.15      0.05         0.01
  WS02006243WS02006242        1.22      1.22      5.78      0.01         0.01
  WS02006242WS02006240        1.49      1.49      5.79      5.62         0.01
  WS02006240WS02006239        1.81      1.81      2.09      0.01         0.01
  WS02006239WS02006238        5.79      5.79      5.79      0.61         0.63
  WS02006238WS02006235        5.79      5.79      5.80      0.01         0.01
  WS02006235WS02006234        1.40      1.40      5.79      6.11         0.01
  WS02006234WS02006232        1.80      1.80      5.80      0.01         0.01
  WS02006232WS02006231        1.14      1.14      5.80      0.01         0.01
  WS02006231WS02006230        0.81      0.81      1.17      6.12         0.01
  WS02006230WS02006229        5.83      5.84      5.83      6.22         5.83
  WS02006228WS02006109        5.81      5.82      5.81      5.95         5.81
  WS02006112WS02006115        0.01      0.01      1.37      0.01         0.01
  WS02006111WS02006112        0.01      0.01      5.84      0.01         0.01
  WS02006110WS02006113        0.01      0.01      5.81      0.01         0.01
  WS02006109WS02006110        1.24      1.24      5.82      1.25         0.01
  WS02004401WS02004402        0.01      0.01      0.01      0.01         0.01
  WS02004406WS02004407        0.01      0.01      0.51      0.01         0.01
  WS02004405WS02004406        0.51      0.68      0.51      1.29         0.51
  WS02004404WS02004405        0.68      0.86      0.68      6.00         0.68
  WS02004403WS02004404        0.04      0.04      0.86      0.01         0.01
  WS02004402WS02004403        0.01      0.01      0.04      0.01         0.01
  WS02003072WS02003073        0.01      0.01      0.01      5.73         0.01
  HS02004480HS02004478        0.01      0.01      0.01      0.25         0.01
  YS02001759YS02001757        5.66      5.66      5.74      0.01         0.01
  YS02001762YS02001759        5.63      5.63      5.66      0.01         0.01
  YS02001765YS02001762        5.60      5.60      5.63      0.01         0.01
  YS02001770YS02001767        5.45      5.46      5.47      0.45         1.01
  YS02001774YS02001770        5.40      5.40      5.63      0.01         0.01
  YS02001779YS02001774        5.26      5.26      5.63      0.01         0.01
  YS02001649YS02001757        5.64      5.64      5.74      0.01         0.01
  YS02001767YS02001765        5.47      5.47      5.60      0.01         0.01
  YS02006561YS02001783        0.66      0.66      1.28      0.01         0.01
  YS02001783YS02001784        1.28      1.28      1.32      1.09         1.01
  YS02001784YS02001785        1.29      1.32      1.29      2.07         1.28
  YS02001788YS02001790        1.28      1.28      2.66      0.01         0.01
  YS02001790YS02001791        2.66      2.66      2.78      0.49         0.49
  YS02001791YS02001793        2.78      2.78      3.05      0.01         0.01
  YS02001910YS02001907        1.00      1.00      1.48      0.01         0.01
  YS02001786YS02001788        1.28      1.29      1.28      1.69         1.27
  YS02001915YS02001910        0.78      0.78      1.00      0.01         0.01
  YS02001918YS02001915        0.53      0.53      0.78      0.01         0.01
  YS02001923YS02001920        0.29      0.29      0.56      0.01         0.01
  YS02001920YS02001918        0.53      0.53      0.56      0.01         0.01
  YS02001629YS02163301        5.41      5.41      5.49      0.01         0.01
  YS02001619YS02001622        5.13      5.13      5.16      0.01         0.01
  YS02001622YS02001625        5.16      5.16      5.36      0.01         0.01
  YS02001625YS02001629        5.14      5.14      5.36      0.01         0.01
  YS02163301YS02001633        5.49      5.49      5.61      0.01         0.01
  YS02163601YS02164001        5.61      5.61      5.64      0.01         0.01
  YS02164001YS02001641        5.61      5.61      5.61      0.01         0.02
  YS02001641YS02001644        5.61      5.61      5.62      1.19         1.47
  YS02001647YS02001649        5.33      5.33      5.64      0.01         0.01
  YS02006553YS02006556        1.20      1.20      1.55      0.01         0.01
  YS02006556YS02006558        1.36      1.36      1.61      0.01         0.01
  YS02001907YS02006553        2.09      2.09      2.30      0.01         0.01
  YS02006558YS02006561        0.89      1.17      0.89      1.94         0.89
  YS02001633YS02163601        5.60      5.60      5.64      0.01         0.01
  YS02001644YS02001647        5.33      5.33      5.62      0.01         0.01
  YS02001745YS02001748        0.01      0.01      4.16      0.01         0.01
  YS02001748YS02001751        4.55      4.55      5.10      0.01         0.01
  YS02001751YS02001754        5.10      5.10      5.28      0.01         0.01
  YS02001754YS02001757        5.32      5.32      5.74      0.01         0.01
  YS02001882YS02001884        0.79      0.79      0.83      0.01         0.01
  YS02001884YS02001887        0.89      0.89      0.92      0.01         0.01
  YS02001890YS02001895        0.76      0.76      1.02      0.01         0.01
  YS02001895YS02001898        0.75      0.75      0.76      0.01         0.01
  YS02001898YS02001901        0.78      0.78      0.88      0.01         0.01
  YS02001901YS02001904        0.86      0.86      0.88      0.01         0.01
  YS02001904YS02001907        0.86      0.86      1.57      0.01         0.01
  YS02001887YS02001890        0.95      0.95      0.98      0.01         0.01
  YS02001652YS02001649        5.33      5.33      5.64      0.01         0.01
  YS02001655YS02001652        5.14      5.14      5.31      0.01         0.01
  YS02001658YS02001655        4.21      4.21      5.14      0.01         0.01
  YS02001661YS02001658        0.20      0.20      4.21      0.01         0.01
  YS02001664YS02001661        0.01      0.01      0.91      0.01         0.01
  YS02001793JiankangQianchi        2.99      2.99      3.99      0.01         0.01
  YS02001757CaochengTiaoxuchi        4.57      4.57      5.74      0.01         0.01
  
  
  ***************
  Pumping Summary
  ***************
  
  ---------------------------------------------------------------------------------------------------------
                                                  Min       Avg       Max     Total     Power    % Time Off
                        Percent   Number of      Flow      Flow      Flow    Volume     Usage    Pump Curve
  Pump                 Utilized   Start-Ups       LPS       LPS       LPS  10^6 ltr     Kw-hr    Low   High
  ---------------------------------------------------------------------------------------------------------
  CC-Pump-1               75.82           1      0.00    198.78    200.00     4.241      8.70    0.0   12.1
  CC-Pump-2               75.82           1      0.00    198.78    200.00     4.241      8.70    0.0   12.1
  JK-Pump-1               19.15           2      0.00     74.93    110.04     0.179      3.52    0.0    0.0
  JK-Pump-2              100.00           1      0.00    251.30    300.00     5.639     51.26    0.0    0.0
  XR-Pump-1              100.00           1      0.00     95.00     95.00     2.679     20.10    0.0    0.0
  XR-Pump-2                8.51           1      0.00     71.25     95.00     0.171      2.63    0.0    0.0
  XR-Pump-3                8.51           1      0.00     71.25     95.00     0.171      2.63    0.0    0.0
  XR-Pump-4               97.87           2      0.00     94.65     95.00     2.565     18.12    0.0    0.0
  

  Analysis begun on:  Wed Jan  5 15:04:00 2022
  Analysis ended on:  Wed Jan  5 15:04:04 2022
  Total elapsed time: 00:00:04