
  EPA STORM WATER MANAGEMENT MODEL - VERSION 5.1 (Build 5.3.0.dev0)
  --------------------------------------------------------------

  WARNING 04: minimum elevation drop used for Conduit WS02004404WS02004405
  WARNING 03: negative offset ignored for Link YS02001904YS02001907
  
  *********************************************************
  NOTE: The summary statistics displayed in this report are
  based on results found at every computational time step,  
  not just on results from each reporting time step.
  *********************************************************
  
  ****************
  Analysis Options
  ****************
  Flow Units ............... LPS
  Process Models:
    Rainfall/Runoff ........ YES
    RDII ................... NO
    Snowmelt ............... NO
    Groundwater ............ NO
    Flow Routing ........... YES
    Ponding Allowed ........ NO
    Water Quality .......... YES
  Infiltration Method ...... HORTON
  Flow Routing Method ...... DYNWAVE
  Surcharge Method ......... EXTRAN
  Starting Date ............ 08/28/2015 08:00:00
  Ending Date .............. 08/28/2015 15:50:00
  Antecedent Dry Days ...... 8.0
  Report Time Step ......... 00:01:00
  Wet Time Step ............ 00:01:00
  Dry Time Step ............ 00:01:00
  Routing Time Step ........ 5.00 sec
  Variable Time Step ....... YES
  Maximum Trials ........... 8
  Number of Threads ........ 4
  Head Tolerance ........... 0.001500 m
  
  
  **************************        Volume         Depth
  Runoff Quantity Continuity     hectare-m            mm
  **************************     ---------       -------
  Total Precipitation ......         3.640         7.970
  Evaporation Loss .........         0.000         0.000
  Infiltration Loss ........         0.733         1.605
  Surface Runoff ...........         2.260         4.949
  Final Storage ............         0.648         1.418
  Continuity Error (%) .....        -0.020
  
  
  **************************           COD            SS            TN            TP         NH4-N
  Runoff Quality Continuity             kg            kg            kg            kg            kg
  **************************    ----------    ----------    ----------    ----------    ----------
  Initial Buildup ..........     41378.656     70582.865      1804.177       168.684      1032.807
  Surface Buildup ..........        13.981        21.011         2.244         0.207         1.321
  Wet Deposition ...........         0.000         0.000         0.000         0.000         0.000
  Sweeping Removal .........         0.000         0.000         0.000         0.000         0.000
  Infiltration Loss ........        43.987        78.805         0.854         0.058         0.403
  BMP Removal ..............         0.000         0.000         0.000         0.000         0.000
  Surface Runoff ...........      1510.361      2635.242        30.119         1.979        14.225
  Remaining Buildup ........     39837.856     67889.075      1775.439       166.853      1019.497
  Continuity Error (%) .....         0.001         0.001         0.000         0.000         0.000
  
  
  **************************        Volume        Volume
  Flow Routing Continuity        hectare-m      10^6 ltr
  **************************     ---------     ---------
  Dry Weather Inflow .......         0.616         6.165
  Wet Weather Inflow .......         2.260        22.596
  Groundwater Inflow .......         0.000         0.000
  RDII Inflow ..............         0.000         0.000
  External Inflow ..........         0.102         1.024
  External Outflow .........         1.359        13.585
  Flooding Loss ............         1.056        10.559
  Evaporation Loss .........         0.000         0.000
  Exfiltration Loss ........         0.000         0.000
  Initial Stored Volume ....         0.076         0.761
  Final Stored Volume ......         0.644         6.437
  Continuity Error (%) .....        -0.121
  
  
  **************************           COD            SS            TN            TP         NH4-N
  Quality Routing Continuity            kg            kg            kg            kg            kg
  **************************    ----------    ----------    ----------    ----------    ----------
  Dry Weather Inflow .......      1541.201      2465.922       147.955        18.494        92.472
  Wet Weather Inflow .......      1510.061      2634.778        30.112         1.978        14.222
  Groundwater Inflow .......         0.000         0.000         0.000         0.000         0.000
  RDII Inflow ..............         0.000         0.000         0.000         0.000         0.000
  External Inflow ..........       183.418       293.469        17.608         2.201        11.005
  External Outflow .........      1780.390      2937.655       133.045        16.045        81.607
  Flooding Loss ............       841.839      1429.553        32.599         3.328        18.480
  Exfiltration Loss ........         0.000         0.000         0.000         0.000         0.000
  Mass Reacted .............         0.000         0.000         0.000         0.000         0.000
  Initial Stored Mass ......         0.000         0.000         0.000         0.000         0.000
  Final Stored Mass ........       594.545       996.354        29.895         3.310        17.600
  Continuity Error (%) .....         0.554         0.567         0.069        -0.042         0.010
  
  
  *************************
  Highest Continuity Errors
  *************************
  Node HS02004842 (19.35%)
  Node YS02001884 (12.85%)
  Node YSB1171 (4.21%)
  Node YS02001774 (4.19%)
  Node HS02004817 (3.60%)
  
  
  ***************************
  Time-Step Critical Elements
  ***************************
  Link WS02006238WS02006235 (28.47%)
  Link YS02006556YS02006558 (25.57%)
  Link WS02006280WS02006229 (17.96%)
  Link WS02003066WSF200 (10.69%)
  Link YS02001791YS02001793 (3.12%)
  
  
  ********************************
  Highest Flow Instability Indexes
  ********************************
  Link WS02006113WS02006111 (69)
  Link YS02001629YS02163301 (37)
  Link YS02163301YS02001633 (37)
  Link YS02163601YS02164001 (36)
  Link WS02004404WS02004405 (36)
  
  
  *************************
  Routing Time Step Summary
  *************************
  Minimum Time Step           :     0.50 sec
  Average Time Step           :     2.73 sec
  Maximum Time Step           :     5.00 sec
  Percent in Steady State     :     0.00
  Average Iterations per Step :     4.42
  Percent Not Converging      :    23.62
  
  
  ***************************
  Subcatchment Runoff Summary
  ***************************
  
  ------------------------------------------------------------------------------------------------------------------------------
                            Total      Total      Total      Total     Imperv       Perv      Total       Total     Peak  Runoff
                           Precip      Runon       Evap      Infil     Runoff     Runoff     Runoff      Runoff   Runoff   Coeff
  Subcatchment                 mm         mm         mm         mm         mm         mm         mm    10^6 ltr      LPS
  ------------------------------------------------------------------------------------------------------------------------------
  sub0                       7.97       0.00       0.00       0.56       7.37       0.00       7.37        0.01     1.13   0.924
  sub1                       7.97       0.00       0.00       0.88       7.00       0.00       7.00        0.05     7.41   0.879
  sub2                       7.97       0.00       0.00       2.95       4.94       0.00       4.94        0.05     6.97   0.620
  sub3                       7.97       0.00       0.00       2.95       4.90       0.00       4.90        0.11    15.30   0.615
  sub4                       7.97       0.00       0.00       0.88       6.86       0.00       6.86        0.14    18.78   0.861
  sub5                       7.97       0.00       0.00       0.56       7.32       0.00       7.32        0.08    13.18   0.918
  sub7                       7.97       0.00       0.00       0.72       7.19       0.00       7.19        0.02     4.14   0.902
  sub8                       7.97       0.00       0.00       0.72       7.18       0.00       7.18        0.05     7.57   0.901
  sub9                       7.97       0.00       0.00       0.72       7.18       0.00       7.18        0.03     5.67   0.901
  sub10                      7.97       0.00       0.00       0.64       7.25       0.00       7.25        0.08    12.87   0.909
  sub11                      7.97       0.00       0.00       0.64       7.26       0.00       7.26        0.08    14.00   0.911
  sub12                      7.97       0.00       0.00       1.04       6.89       0.00       6.89        0.06    11.01   0.864
  sub14                      7.97       0.00       0.00       0.72       7.18       0.00       7.18        0.07    11.19   0.901
  sub15                      7.97       0.00       0.00       2.39       5.52       0.00       5.52        0.09    15.44   0.692
  sub16                      7.97       0.00       0.00       2.63       5.30       0.00       5.30        0.06     9.91   0.665
  sub17                      7.97       0.00       0.00       2.55       5.38       0.00       5.38        0.05     8.11   0.675
  sub22                      7.97       0.00       0.00       3.43       4.50       0.00       4.50        0.28    47.62   0.565
  sub23                      7.97       0.00       0.00       2.95       4.98       0.00       4.98        0.24    40.25   0.625
  sub60                      7.97       0.00       0.00       0.96       5.46       0.00       5.46        1.66   151.54   0.685
  sub61                      7.97       0.00       0.00       1.35       5.63       0.00       5.63        1.74   173.84   0.707
  sub62                      7.97       0.00       0.00       0.64       6.10       0.00       6.10        1.88   183.18   0.766
  sub63                      7.97       0.00       0.00       2.31       4.95       0.00       4.95        1.50   154.60   0.622
  sub64                      7.97       0.00       0.00       1.20       5.23       0.00       5.23        1.59   144.65   0.657
  sub65                      7.97       0.00       0.00       1.04       5.31       0.00       5.31        1.63   147.50   0.667
  sub66                      7.97       0.00       0.00       2.31       4.51       0.00       4.51        1.38   129.61   0.566
  sub67                      7.97       0.00       0.00       0.64       6.51       0.00       6.51        2.01   210.42   0.817
  sub68                      7.97       0.00       0.00       1.12       5.94       0.00       5.94        1.83   186.51   0.746
  sub69                      7.97       0.00       0.00       1.20       6.23       0.00       6.23        1.46   160.45   0.782
  sub70                      7.97       6.36       0.00       4.84       8.14       0.03       8.17        1.87   178.84   0.570
  sub71                      7.97       0.00       0.00       0.64       5.91       0.00       5.91        1.40   132.06   0.742
  sub72                      7.97       0.00       0.00       0.56       4.54       0.00       4.54        0.92    70.64   0.569
  1                          7.97       7.95       0.00       1.37       8.72       1.86      10.58        2.49   189.61   0.665
  2                          7.97       0.00       0.00       3.02       1.86       0.71       2.57        1.03   101.68   0.323
  
  
  ****************************
  Subcatchment Washoff Summary
  ****************************
  
  ------------------------------------------------------------------------------------------
                                 COD            SS            TN            TP         NH4-N
  Subcatchment                    kg            kg            kg            kg            kg
  ------------------------------------------------------------------------------------------
  sub0                         1.154         2.120         0.019         0.002         0.009
  sub1                         4.872         9.141         0.092         0.006         0.044
  sub2                         2.834         5.134         0.063         0.004         0.029
  sub3                         6.993        12.550         0.152         0.010         0.069
  sub4                        11.296        21.309         0.231         0.013         0.110
  sub5                        11.203        20.746         0.197         0.015         0.095
  sub7                         2.539         4.847         0.048         0.003         0.023
  sub8                         3.864         7.535         0.079         0.004         0.038
  sub9                         3.272         6.293         0.064         0.004         0.031
  sub10                        9.278        17.409         0.170         0.012         0.082
  sub11                        9.132        17.354         0.172         0.011         0.083
  sub12                        7.524        14.018         0.135         0.010         0.065
  sub14                        6.943        13.227         0.133         0.009         0.064
  sub15                        8.153        14.791         0.161         0.011         0.075
  sub16                        5.095         9.220         0.099         0.007         0.046
  sub17                        4.666         8.366         0.087         0.007         0.041
  sub22                       23.808        42.183         0.465         0.034         0.214
  sub23                       14.685        27.044         0.329         0.021         0.149
  sub60                       99.626       173.935         2.069         0.121         0.988
  sub61                      123.114       213.743         2.353         0.155         1.129
  sub62                      130.211       230.398         2.632         0.160         1.259
  sub63                       90.999       155.642         1.915         0.131         0.877
  sub64                      120.712       202.914         2.275         0.161         1.080
  sub65                      123.888       209.199         2.354         0.163         1.119
  sub66                       71.275       120.946         1.546         0.097         0.716
  sub67                      191.546       335.584         3.460         0.248         1.666
  sub68                      136.944       240.416         2.701         0.176         1.284
  sub69                      123.967       220.122         2.376         0.162         1.130
  sub70                      197.244       351.358         4.070         0.273         1.886
  sub71                       86.616       154.639         1.864         0.103         0.889
  sub72                       62.578       103.628         1.206         0.079         0.578
  1                          119.028       213.462         2.530         0.170         1.156
  2                           16.512        27.448         0.518         0.031         0.217
  ------------------------------------------------------------------------------------------
  System                    1831.572      3206.723        36.565         2.413        17.241
  
  
  ******************
  Node Depth Summary
  ******************
  
  ---------------------------------------------------------------------------------
                                 Average  Maximum  Maximum  Time of Max    Reported
                                   Depth    Depth      HGL   Occurrence   Max Depth
  Node                 Type       Meters   Meters   Meters  days hr:min      Meters
  ---------------------------------------------------------------------------------
  WS02001211           JUNCTION     0.68     0.72     5.55     0  02:13        0.72
  WS02001212           JUNCTION     0.40     0.44     5.50     0  02:13        0.44
  WS02001213           JUNCTION     0.62     0.69     5.45     0  02:12        0.69
  WS02003069           JUNCTION     0.42     0.53     5.11     0  02:11        0.53
  WS02003072           JUNCTION     0.48     0.59     4.96     0  02:12        0.59
  WS02003073           JUNCTION     0.29     0.36     4.42     0  02:12        0.36
  WS02003060           JUNCTION     0.37     0.47     5.40     0  02:11        0.47
  WS02003066           JUNCTION     0.19     0.28     5.84     0  02:07        0.28
  WS02003059           JUNCTION     0.68     0.75     5.44     0  02:11        0.75
  WS02003067           JUNCTION     0.48     0.68     6.00     0  02:07        0.68
  WS02004401           JUNCTION     0.58     0.83     6.83     0  02:04        0.83
  WS02004402           JUNCTION     0.61     0.86     6.82     0  02:05        0.86
  WS02004403           JUNCTION     0.63     0.87     6.80     0  02:05        0.87
  WS02004404           JUNCTION     0.71     0.96     6.81     0  02:05        0.96
  WS02004406           JUNCTION     0.71     0.93     6.76     0  02:02        0.93
  WS02004409           JUNCTION     0.40     0.63     6.40     0  02:06        0.63
  WS02004410           JUNCTION     0.42     0.64     6.36     0  02:06        0.64
  WS02004411           JUNCTION     0.44     0.66     6.34     0  02:06        0.66
  WS02004412           JUNCTION     0.45     0.67     6.31     0  02:08        0.67
  WS02004413           JUNCTION     0.59     0.83     6.30     0  02:07        0.83
  WS02004405           JUNCTION     0.69     0.93     6.78     0  02:02        0.93
  WS02006109           JUNCTION     0.67     0.90     7.52     0  01:59        0.90
  WS02006110           JUNCTION     0.67     0.88     7.46     0  02:00        0.88
  WS02006111           JUNCTION     0.19     0.27     6.98     0  02:04        0.27
  WS02006112           JUNCTION     0.75     1.01     6.90     0  02:05        1.01
  WS02006113           JUNCTION     0.28     0.43     7.32     0  02:00        0.43
  WS02006115           JUNCTION     0.48     0.72     6.86     0  02:04        0.72
  WS02006116           JUNCTION     0.56     0.80     6.84     0  02:04        0.80
  WS02006230           JUNCTION     0.61     0.91     7.65     0  02:00        0.91
  WS02006231           JUNCTION     0.37     0.57     7.70     0  02:02        0.57
  WS02006232           JUNCTION     0.47     0.69     7.73     0  02:03        0.69
  WS02006234           JUNCTION     0.39     0.60     7.76     0  02:03        0.60
  WS02006235           JUNCTION     0.41     0.62     7.79     0  02:04        0.62
  WS02006238           JUNCTION     0.43     0.64     7.79     0  02:04        0.64
  WS02006240           JUNCTION     0.31     0.50     7.79     0  02:04        0.50
  WS02006242           JUNCTION     0.33     0.52     7.79     0  02:04        0.52
  WS02006243           JUNCTION     0.21     0.37     7.79     0  02:04        0.37
  WS02006245           JUNCTION     0.17     0.31     7.79     0  02:04        0.31
  WS02006247           JUNCTION     0.16     0.30     7.80     0  02:04        0.30
  WS02006248           JUNCTION     0.10     0.21     7.80     0  02:04        0.21
  WS02006249           JUNCTION     0.11     0.22     7.81     0  02:03        0.22
  WS02006239           JUNCTION     0.37     0.58     7.79     0  02:03        0.58
  WS02006251           JUNCTION     0.08     0.17     7.84     0  02:02        0.17
  WS02006252           JUNCTION     0.00     0.00     8.24     0  00:00        0.00
  WS02006253           JUNCTION     0.12     0.22     7.87     0  01:48        0.22
  WS02006256           JUNCTION     1.69     2.35     9.28     0  01:39        2.35
  WS02004138           JUNCTION     0.16     0.17     7.42     0  05:30        0.17
  WS02004139           JUNCTION     0.63     0.66     5.57     0  02:14        0.66
  WS02004407           JUNCTION     0.18     0.28     6.59     0  02:02        0.28
  WS02006228           JUNCTION     0.66     0.93     7.58     0  01:59        0.93
  WS02006229           JUNCTION     0.63     0.92     7.61     0  01:59        0.92
  WS02006280           JUNCTION     0.07     0.14     8.41     0  01:48        0.14
  WS02006284           JUNCTION     0.37     0.48     8.88     0  01:48        0.48
  WS02006287           JUNCTION     0.11     0.21     9.16     0  01:47        0.21
  WSF200               JUNCTION     0.18     0.29     5.52     0  02:08        0.29
  HS02004901           JUNCTION     0.13     0.22    10.05     0  01:36        0.22
  HS02004881           JUNCTION     0.01     0.02     9.05     0  01:48        0.02
  HS02004876           JUNCTION     0.05     0.10     9.13     0  01:47        0.10
  HS02004870           JUNCTION     0.02     0.04     9.33     0  01:48        0.04
  HS02004862           JUNCTION     0.02     0.05     9.43     0  01:49        0.05
  HS02004856           JUNCTION     0.08     0.10     9.53     0  01:48        0.10
  HS02004852           JUNCTION     0.01     0.03     9.54     0  01:50        0.03
  HS02004848           JUNCTION     0.01     0.03     9.63     0  01:48        0.03
  HS02004842           JUNCTION     0.33     0.36     9.63     0  01:48        0.36
  HS02004837           JUNCTION     0.03     0.05     9.63     0  01:48        0.05
  HS02004830           JUNCTION     0.04     0.06     9.53     0  01:49        0.06
  HS02004824           JUNCTION     0.02     0.04     9.44     0  01:51        0.04
  HS02004817           JUNCTION     0.44     0.52     9.37     0  01:49        0.52
  HS02004807           JUNCTION     0.13     0.20     9.37     0  01:49        0.20
  HS02004802           JUNCTION     0.16     0.24     9.36     0  01:48        0.24
  HS02004799           JUNCTION     0.13     0.25     9.46     0  01:45        0.25
  HS02004792           JUNCTION     0.04     0.09     9.62     0  01:45        0.09
  HS02004788           JUNCTION     0.03     0.07     9.97     0  01:45        0.07
  HS02004785           JUNCTION     0.06     0.13    10.03     0  01:37        0.13
  HS02004777           JUNCTION     0.15     0.24    10.04     0  01:37        0.24
  HS02004770           JUNCTION     0.12     0.21    10.05     0  01:36        0.21
  HS02004480           JUNCTION     0.09     0.19     9.43     0  01:45        0.19
  HS02004479           JUNCTION     0.13     0.23     9.43     0  01:46        0.23
  HS02004478           JUNCTION     0.06     0.12     9.35     0  01:47        0.12
  YS02001745           JUNCTION     0.60     0.88     8.39     0  03:11        0.88
  YS02001748           JUNCTION     0.95     1.32     8.40     0  03:11        1.31
  YS02001751           JUNCTION     1.12     1.53     8.41     0  03:11        1.51
  YS02001754           JUNCTION     1.36     1.81     8.42     0  03:11        1.79
  YS02001762           JUNCTION     1.55     2.03     8.43     0  02:59        2.00
  YS02001765           JUNCTION     1.51     1.98     8.43     0  03:02        1.95
  YS02001767           JUNCTION     1.47     1.93     8.42     0  03:02        1.90
  YS02001770           JUNCTION     1.47     1.90     8.40     0  03:06        1.89
  YS02001774           JUNCTION     1.53     1.97     8.39     0  03:06        1.96
  YS02001779           JUNCTION     1.29     1.68     8.37     0  02:49        1.68
  YS02001882           JUNCTION     0.39     0.63     7.35     0  03:00        0.63
  YS02001884           JUNCTION     0.48     0.73     7.34     0  03:00        0.73
  YS02001759           JUNCTION     1.58     2.07     8.43     0  03:02        2.04
  YS02001887           JUNCTION     0.55     0.81     7.34     0  03:01        0.81
  YS02001890           JUNCTION     0.58     0.83     7.34     0  02:59        0.83
  YS02001898           JUNCTION     0.36     0.59     7.33     0  02:57        0.59
  YS02001901           JUNCTION     0.47     0.72     7.33     0  02:57        0.72
  YS02001904           JUNCTION     0.45     0.69     7.32     0  02:59        0.69
  YS02001907           JUNCTION     0.77     1.04     7.33     0  02:58        1.03
  YS02001910           JUNCTION     0.56     0.82     7.32     0  02:59        0.82
  YS02001915           JUNCTION     0.37     0.60     7.32     0  02:59        0.60
  YS02001918           JUNCTION     0.13     0.26     7.32     0  03:00        0.25
  YS02001619           JUNCTION     1.09     1.51     8.44     0  02:34        1.46
  YS02001629           JUNCTION     1.42     1.85     8.40     0  02:39        1.83
  YS02001641           JUNCTION     1.52     1.94     8.38     0  02:48        1.93
  YS02001644           JUNCTION     1.52     1.92     8.35     0  02:48        1.92
  YS02001652           JUNCTION     1.37     2.08     8.68     0  02:56        1.83
  YS02001655           JUNCTION     1.15     2.03     8.88     0  02:56        1.60
  YS02001920           JUNCTION     0.22     0.33     7.34     0  03:00        0.33
  YS02001923           JUNCTION     0.09     0.12     7.38     0  03:01        0.12
  YS02001926           JUNCTION     0.18     0.24     7.68     0  03:01        0.24
  YS02001929           JUNCTION     0.09     0.13     7.82     0  03:01        0.13
  YS02001658           JUNCTION     0.90     2.01     9.15     0  02:56        1.32
  YS02001661           JUNCTION     0.70     1.98     9.38     0  02:56        1.07
  YS02001664           JUNCTION     0.31     0.59     8.51     0  02:51        0.58
  YS02001622           JUNCTION     1.11     1.50     8.41     0  02:39        1.49
  YS02001633           JUNCTION     1.51     1.95     8.41     0  02:49        1.92
  YS02001649           JUNCTION     1.56     2.05     8.44     0  02:52        2.01
  YS02001757           JUNCTION     1.68     2.17     8.43     0  03:02        2.14
  YS02001895           JUNCTION     0.35     0.59     7.33     0  02:59        0.58
  YS02001625           JUNCTION     1.38     1.78     8.38     0  02:39        1.78
  YS02163301           JUNCTION     1.45     1.89     8.40     0  02:49        1.86
  YS02163601           JUNCTION     1.56     2.00     8.39     0  02:49        1.97
  YS02164001           JUNCTION     1.50     1.93     8.39     0  02:49        1.91
  YS02001647           JUNCTION     1.36     1.80     8.41     0  02:56        1.77
  YSB1154              JUNCTION     0.26     0.38     9.44     0  01:46        0.38
  YSB6556              JUNCTION     0.16     0.27     9.43     0  01:45        0.27
  YSB1174              JUNCTION     0.21     0.33     9.43     0  01:45        0.33
  YSB1171              JUNCTION     0.41     0.53     9.43     0  01:46        0.53
  YS02006553           JUNCTION     0.77     1.05     7.33     0  02:56        1.04
  YS02006561           JUNCTION     0.19     0.35     7.01     0  03:01        0.34
  YS02006556           JUNCTION     0.75     1.02     7.33     0  03:01        1.01
  YS02006558           JUNCTION     0.79     1.06     7.33     0  02:45        1.05
  YS02001783           JUNCTION     0.34     0.59     6.73     0  03:00        0.59
  YS02001784           JUNCTION     0.37     0.61     6.67     0  03:01        0.61
  YS02001786           JUNCTION     0.31     0.51     6.54     0  03:01        0.51
  YS02001788           JUNCTION     0.23     0.40     6.37     0  03:01        0.40
  YS02001790           JUNCTION     0.28     0.48     6.13     0  03:01        0.48
  YS02001791           JUNCTION     0.18     0.31     5.78     0  02:54        0.29
  YS02001793           JUNCTION     0.36     1.25     6.09     0  02:54        0.95
  WSC                  OUTFALL      0.29     0.36     1.03     0  02:13        0.36
  JK-storage           STORAGE      4.18     4.89     5.69     0  02:49        4.88
  CC-storage           STORAGE      0.96     1.39     8.39     0  03:10        1.39
  XR-storage           STORAGE      7.49     7.72     5.72     0  02:00        7.72
  
  
  *******************
  Node Inflow Summary
  *******************
  
  -------------------------------------------------------------------------------------------------
                                  Maximum  Maximum                  Lateral       Total        Flow
                                  Lateral    Total  Time of Max      Inflow      Inflow     Balance
                                   Inflow   Inflow   Occurrence      Volume      Volume       Error
  Node                 Type           LPS      LPS  days hr:min    10^6 ltr    10^6 ltr     Percent
  -------------------------------------------------------------------------------------------------
  WS02001211           JUNCTION      7.35   293.85     0  01:29       0.207        7.57       0.503
  WS02001212           JUNCTION      0.00   294.60     0  05:01           0        7.53       0.257
  WS02001213           JUNCTION      0.00   295.65     0  05:00           0        7.51       0.288
  WS02003069           JUNCTION      0.32   791.14     0  02:11     0.00902        13.6       0.158
  WS02003072           JUNCTION      0.00   791.13     0  02:11           0        13.6       0.207
  WS02003073           JUNCTION      1.82   792.94     0  02:12      0.0514        13.6       0.227
  WS02003060           JUNCTION     16.53   790.84     0  02:10       0.466        13.6       0.151
  WS02003066           JUNCTION      0.00   482.50     0  02:07           0        5.71       0.039
  WS02003059           JUNCTION      0.00   297.74     0  04:59           0         7.5       0.502
  WS02003067           JUNCTION      0.00   482.46     0  02:07           0        5.72       0.094
  WS02004401           JUNCTION      0.00   484.43     0  02:04           0        5.85       0.230
  WS02004402           JUNCTION      0.00   483.88     0  02:04           0        5.83       0.225
  WS02004403           JUNCTION      0.00   486.10     0  02:05           0        5.82       0.211
  WS02004404           JUNCTION      0.16   495.37     0  02:05     0.00457        5.81       0.183
  WS02004406           JUNCTION      0.00   487.11     0  02:02           0        5.79       0.406
  WS02004409           JUNCTION      0.00   483.61     0  02:02           0        5.77       0.095
  WS02004410           JUNCTION      0.00   483.09     0  02:02           0        5.76       0.130
  WS02004411           JUNCTION      0.00   483.01     0  02:06           0        5.75       0.150
  WS02004412           JUNCTION      0.00   482.78     0  02:07           0        5.74       0.185
  WS02004413           JUNCTION      0.00   482.72     0  02:07           0        5.73       0.310
  WS02004405           JUNCTION      0.04   537.61     0  02:05     0.00107         5.8       0.204
  WS02006109           JUNCTION      1.23   477.44     0  02:00      0.0347        5.88       0.278
  WS02006110           JUNCTION      0.00   477.44     0  02:00           0        5.87       0.280
  WS02006111           JUNCTION      0.00   492.93     0  02:04           0        5.85       0.044
  WS02006112           JUNCTION      8.11   487.50     0  02:04      0.0461        5.89       0.329
  WS02006113           JUNCTION      0.00   477.56     0  02:00           0        5.85       0.105
  WS02006115           JUNCTION      0.00   485.69     0  02:04           0        5.87       0.222
  WS02006116           JUNCTION      0.00   484.59     0  02:04           0        5.86       0.159
  WS02006230           JUNCTION     10.28   292.63     0  02:27        0.29        4.45       0.244
  WS02006231           JUNCTION      0.00   281.68     0  02:28           0        4.16       0.116
  WS02006232           JUNCTION      0.00   281.34     0  02:27           0        4.17       0.285
  WS02006234           JUNCTION      0.00   280.88     0  02:27           0        4.17       0.028
  WS02006235           JUNCTION      0.00   311.05     0  01:40           0         4.5       0.154
  WS02006238           JUNCTION      0.00   219.20     0  01:40           0       0.815       0.455
  WS02006240           JUNCTION      0.00   113.79     0  01:41           0       0.587       1.309
  WS02006242           JUNCTION      0.00    98.10     0  01:41           0       0.465       1.977
  WS02006243           JUNCTION      0.00    54.72     0  01:42           0       0.365       2.223
  WS02006245           JUNCTION      0.00    41.52     0  01:46           0       0.312       1.544
  WS02006247           JUNCTION      0.00    41.02     0  01:47           0       0.283       0.354
  WS02006248           JUNCTION      0.00    41.26     0  01:46           0       0.268       0.002
  WS02006249           JUNCTION      0.00    41.47     0  01:49           0       0.265       0.258
  WS02006239           JUNCTION      0.00   132.80     0  01:40           0        0.71       0.710
  WS02006251           JUNCTION      0.08    41.53     0  01:48     0.00217       0.265      -0.031
  WS02006252           JUNCTION      0.00     0.00     0  00:00           0           0       0.000 ltr
  WS02006253           JUNCTION      1.13    41.46     0  01:47     0.00597       0.263       0.136
  WS02006256           JUNCTION      0.00   983.00     0  02:00           0        6.18      -0.159
  WS02004138           JUNCTION      0.00   285.00     0  01:27           0        7.39       0.053
  WS02004139           JUNCTION      0.32   285.32     0  02:38     0.00905         7.4       0.487
  WS02004407           JUNCTION      0.00   483.77     0  02:02           0        5.77       0.042
  WS02006228           JUNCTION      0.00   476.21     0  01:59           0        5.86       0.214
  WS02006229           JUNCTION      0.00   476.22     0  01:59           0        5.88       0.214
  WS02006280           JUNCTION      0.00   204.95     0  01:48           0        1.44       0.005
  WS02006284           JUNCTION      0.10   204.95     0  01:48      0.0027        1.44       0.030
  WS02006287           JUNCTION      0.00   204.86     0  01:47           0        1.44       0.050
  WSF200               JUNCTION      0.00   482.54     0  02:08           0        5.71       0.029
  HS02004901           JUNCTION      9.91     9.91     0  01:30      0.0555      0.0558       3.259
  HS02004881           JUNCTION      4.14    40.49     0  01:47      0.0242       0.257       0.024
  HS02004876           JUNCTION      7.41    36.48     0  01:47      0.0466       0.233       0.230
  HS02004870           JUNCTION      7.57    29.14     0  01:47      0.0459       0.187       0.057
  HS02004862           JUNCTION      7.17    21.74     0  01:48      0.0517       0.141       0.121
  HS02004856           JUNCTION      5.67    14.60     0  01:48      0.0345      0.0907       1.604
  HS02004852           JUNCTION      0.00     9.08     0  01:48           0      0.0562       0.094
  HS02004848           JUNCTION     15.30    15.30     0  01:49        0.11        0.11       0.040
  HS02004842           JUNCTION      0.00     6.70     0  02:15           0      0.0672      23.989
  HS02004837           JUNCTION     19.22    25.27     0  01:48       0.259       0.313       0.251
  HS02004830           JUNCTION      0.15    25.40     0  01:48     0.00423       0.304       0.408
  HS02004824           JUNCTION     18.83    43.36     0  01:51       0.144       0.447       0.121
  HS02004817           JUNCTION      0.60    43.96     0  01:51      0.0169       0.463       3.733
  HS02004807           JUNCTION     14.00    57.42     0  01:50      0.0844       0.532       0.826
  HS02004802           JUNCTION      0.00    57.58     0  01:51           0        0.53       0.751
  HS02004799           JUNCTION     11.19   124.89     0  01:45      0.0683       0.789       0.366
  HS02004792           JUNCTION     47.90   113.71     0  01:45       0.292       0.721       0.056
  HS02004788           JUNCTION     17.11    66.21     0  01:45       0.142        0.43       0.089
  HS02004785           JUNCTION      0.15    49.24     0  01:36     0.00423       0.289       0.170
  HS02004777           JUNCTION      0.03    49.25     0  01:34    0.000846        0.29       1.826
  HS02004770           JUNCTION     40.25    49.72     0  01:32       0.237       0.291       1.070
  HS02004480           JUNCTION      0.00   148.18     0  01:45           0       0.928       0.101
  HS02004479           JUNCTION      0.00    23.31     0  01:48           0       0.152       0.486
  HS02004478           JUNCTION      0.00   204.85     0  01:47           0        1.44       0.025
  YS02001745           JUNCTION    151.55   254.45     0  02:35        1.65        1.66       0.694
  YS02001748           JUNCTION      0.04   382.50     0  02:35     0.00127        1.65       1.364
  YS02001751           JUNCTION      0.01   311.54     0  02:25     0.00031        1.62       1.471
  YS02001754           JUNCTION      0.26   189.58     0  02:23     0.00733        1.61       1.548
  YS02001762           JUNCTION      0.00   197.93     0  02:35           0        1.43       1.513
  YS02001765           JUNCTION      0.00   193.50     0  02:35           0        1.44       1.722
  YS02001767           JUNCTION      0.54   189.98     0  02:35      0.0151        1.46       2.516
  YS02001770           JUNCTION    183.33   262.08     0  03:17        1.88        1.98       1.634
  YS02001774           JUNCTION      0.00   262.14     0  03:17           0       0.599       4.379
  YS02001779           JUNCTION      0.01   263.08     0  03:17    0.000141       0.566       2.787
  YS02001882           JUNCTION      0.00    11.78     0  02:28           0      0.0128      18.061
  YS02001884           JUNCTION      0.00    19.61     0  02:28           0      0.0426      14.741
  YS02001759           JUNCTION    173.88   366.25     0  02:35        1.74        3.05       0.758
  YS02001887           JUNCTION    210.87   226.11     0  02:56        2.02        2.05       0.381
  YS02001890           JUNCTION      0.00   226.21     0  02:56           0        2.01       0.425
  YS02001898           JUNCTION      0.00   224.48     0  03:01           0        1.99       0.126
  YS02001901           JUNCTION      0.00   227.48     0  02:57           0        1.99       0.315
  YS02001904           JUNCTION      0.00   227.61     0  02:50           0        1.99       0.287
  YS02001907           JUNCTION      0.00   449.43     0  03:02           0        4.37       0.529
  YS02001910           JUNCTION      0.00   222.57     0  02:55           0        2.39       0.460
  YS02001915           JUNCTION    132.08   220.05     0  03:01         1.4         2.4       0.220
  YS02001918           JUNCTION      0.00    80.70     0  03:01           0           1       0.156
  YS02001619           JUNCTION    129.61   129.61     0  03:01        1.38        1.38       0.884
  YS02001629           JUNCTION      0.00   176.09     0  02:27           0         1.3       2.275
  YS02001641           JUNCTION      0.00   297.41     0  02:42           0        2.84       0.755
  YS02001644           JUNCTION    144.69   834.69     0  03:11        1.59        7.68       0.337
  YS02001652           JUNCTION      0.00   214.51     0  02:52           0        1.45       1.669
  YS02001655           JUNCTION      0.15   262.65     0  02:23     0.00434        1.47       1.721
  YS02001920           JUNCTION      2.87    73.45     0  03:01      0.0809           1       0.254
  YS02001923           JUNCTION      0.04    70.59     0  03:01     0.00106       0.923       0.046
  YS02001926           JUNCTION      0.05    70.67     0  03:01     0.00147       0.925       0.314
  YS02001929           JUNCTION     70.64    70.64     0  03:01       0.924       0.924       0.045
  YS02001658           JUNCTION      0.00   527.32     0  02:35           0        1.52       1.436
  YS02001661           JUNCTION      0.00   563.44     0  02:52           0         1.6       0.332
  YS02001664           JUNCTION    154.60   396.43     0  02:51         1.5        1.57       0.396
  YS02001622           JUNCTION      0.00   149.54     0  02:28           0        1.37       2.367
  YS02001633           JUNCTION    147.70   292.07     0  02:36        1.64         2.9       1.119
  YS02001649           JUNCTION      0.00   575.17     0  02:46           0        5.25       0.716
  YS02001757           JUNCTION      0.00  1044.56     0  02:46           0        6.56       1.420
  YS02001895           JUNCTION      0.00   228.18     0  03:01           0           2       0.227
  YS02001625           JUNCTION      0.00   176.30     0  02:27           0        1.34       3.000
  YS02163301           JUNCTION      0.00   160.13     0  02:36           0        1.28       1.906
  YS02163601           JUNCTION      0.11   292.34     0  02:36      0.0031        2.86       1.070
  YS02164001           JUNCTION      0.00   291.92     0  02:36           0        2.84       0.725
  YS02001647           JUNCTION      0.00   459.59     0  03:14           0        4.64       0.621
  YSB1154              JUNCTION     13.18    13.18     0  01:46      0.0829      0.0836       1.761
  YSB6556              JUNCTION      0.00    13.26     0  01:46           0      0.0843       1.505
  YSB1174              JUNCTION     11.01    11.01     0  01:29      0.0602      0.0606       2.162
  YSB1171              JUNCTION      0.00    23.43     0  01:44           0        0.15       4.396
  YS02006553           JUNCTION      0.00   441.44     0  03:02           0        4.36       0.343
  YS02006561           JUNCTION      0.00   670.04     0  03:01           0        6.16      -0.001
  YS02006556           JUNCTION      0.00   438.99     0  03:00           0        4.37       0.243
  YS02006558           JUNCTION    187.39   654.52     0  03:01        1.85        6.19       0.081
  YS02001783           JUNCTION      0.00   630.15     0  03:02           0        6.16       0.031
  YS02001784           JUNCTION      1.06   620.58     0  03:00      0.0299        6.19       0.050
  YS02001786           JUNCTION      0.06   619.14     0  03:01     0.00159        6.18       0.048
  YS02001788           JUNCTION      0.07   619.29     0  03:01       0.002        6.18       0.029
  YS02001790           JUNCTION      0.15   618.83     0  03:01     0.00437        6.19       0.035
  YS02001791           JUNCTION      0.00   623.96     0  03:01           0        6.18       0.016
  YS02001793           JUNCTION      0.00   869.33     0  01:55           0        6.25      -0.128
  WSC                  OUTFALL       0.00   792.93     0  02:13           0        13.6       0.000
  JK-storage           STORAGE       0.00  1013.70     0  01:56           0        6.41      -0.037
  CC-storage           STORAGE       0.00  1044.43     0  02:46           0        3.97       1.665
  XR-storage           STORAGE     490.63   490.63     0  03:01        9.16        9.76      -0.002
  
  
  **********************
  Node Surcharge Summary
  **********************
  
  Surcharging occurs when water rises above the top of the highest conduit.
  ---------------------------------------------------------------------
                                               Max. Height   Min. Depth
                                   Hours       Above Crown    Below Rim
  Node                 Type      Surcharged         Meters       Meters
  ---------------------------------------------------------------------
  WS02006109           JUNCTION        1.42          0.083        1.737
  WS02006112           JUNCTION        0.44          0.013        1.667
  WS02006256           JUNCTION        6.29          2.050        0.000
  WS02006228           JUNCTION        1.40          0.096        2.104
  YS02001748           JUNCTION        5.10          0.241        0.949
  YS02001751           JUNCTION        5.35          0.529        0.671
  YS02001754           JUNCTION        5.66          0.761        0.389
  YS02001762           JUNCTION        5.95          1.032        0.118
  YS02001765           JUNCTION        5.91          0.981        0.119
  YS02001767           JUNCTION        5.88          0.929        0.101
  YS02001770           JUNCTION        5.85          0.874        0.046
  YS02001774           JUNCTION        5.94          0.970        0.080
  YS02001779           JUNCTION        5.64          0.680        0.000
  YS02001759           JUNCTION        5.98          1.070        0.140
  YS02001907           JUNCTION        0.54          0.034        0.916
  YS02001619           JUNCTION        5.30          0.510        0.100
  YS02001629           JUNCTION        5.32          0.470        0.000
  YS02001641           JUNCTION        5.92          0.939        0.161
  YS02001644           JUNCTION        5.93          0.920        0.000
  YS02001652           JUNCTION        5.73          1.052        0.078
  YS02001655           JUNCTION        5.37          1.029        0.171
  YS02001658           JUNCTION        5.13          1.006        0.294
  YS02001661           JUNCTION        0.05          0.909        0.481
  YS02001622           JUNCTION        5.35          0.505        0.115
  YS02001633           JUNCTION        5.90          0.931        0.129
  YS02001649           JUNCTION        5.95          1.050        0.000
  YS02001757           JUNCTION        6.06          1.167        0.043
  YS02001625           JUNCTION        5.79          0.780        0.000
  YS02163301           JUNCTION        5.87          0.887        0.143
  YS02163601           JUNCTION        5.95          0.997        0.083
  YS02164001           JUNCTION        5.91          0.929        0.171
  YS02001647           JUNCTION        5.76          0.801        0.099
  YS02006553           JUNCTION        0.82          0.048        1.142
  YS02001793           JUNCTION        0.01          0.254        2.346
  
  
  *********************
  Node Flooding Summary
  *********************
  
  Flooding refers to all water that overflows a node, whether it ponds or not.
  --------------------------------------------------------------------------
                                                             Total   Maximum
                                 Maximum   Time of Max       Flood    Ponded
                        Hours       Rate    Occurrence      Volume     Depth
  Node                 Flooded       LPS   days hr:min    10^6 ltr    Meters
  --------------------------------------------------------------------------
  WS02006256              4.39    741.36      0  02:04       2.233     0.000
  YS02001779              1.75    262.65      0  03:17       0.544     0.000
  YS02001629              0.01     24.34      0  02:39       0.000     0.000
  YS02001644              5.00    834.36      0  03:11       6.274     0.000
  YS02001649              0.01     23.40      0  02:53       0.000     0.000
  YS02001625              0.04     17.13      0  02:50       0.001     0.000
  XR-storage              4.49    205.62      0  03:01       1.506     0.000
  
  
  **********************
  Storage Volume Summary
  **********************
  
  --------------------------------------------------------------------------------------------------
                         Average     Avg  Evap Exfil       Maximum     Max    Time of Max    Maximum
                          Volume    Pcnt  Pcnt  Pcnt        Volume    Pcnt     Occurrence    Outflow
  Storage Unit           1000 m3    Full  Loss  Loss       1000 m3    Full    days hr:min        LPS
  --------------------------------------------------------------------------------------------------
  JK-storage               0.210      72     0     0         0.246      84       0  02:49     983.00
  CC-storage               2.662      17     0     0         3.878      25       0  03:10     140.74
  XR-storage               0.898      97     0     0         0.926     100       0  02:00     285.00
  
  
  ***********************
  Outfall Loading Summary
  ***********************
  
  ---------------------------------------------------------------------------------------------------------------------------------
                         Flow       Avg       Max       Total         Total         Total         Total         Total         Total
                         Freq      Flow      Flow      Volume           COD            SS            TN            TP         NH4-N
  Outfall Node           Pcnt       LPS       LPS    10^6 ltr            kg            kg            kg            kg            kg
  ---------------------------------------------------------------------------------------------------------------------------------
  WSC                   99.99    540.42    792.93      13.585      1780.522      2937.862       133.059        16.047        81.615
  ---------------------------------------------------------------------------------------------------------------------------------
  System                99.99    540.42    792.93      13.585      1780.522      2937.862       133.059        16.047        81.615
  
  
  ********************
  Link Flow Summary
  ********************
  
  -----------------------------------------------------------------------------
                                 Maximum  Time of Max   Maximum    Max/    Max/
                                  |Flow|   Occurrence   |Veloc|    Full    Full
  Link                 Type          LPS  days hr:min     m/sec    Flow   Depth
  -----------------------------------------------------------------------------
  WS02003066WSF200     CONDUIT    482.54     0  02:08      2.67    0.08    0.22
  WS02006287WS02006284 CONDUIT    204.85     0  01:48      1.62    0.09    0.22
  WS02006284WS02006280 CONDUIT    204.95     0  01:48      1.86    0.09    0.20
  WS02006280WS02006229 CONDUIT    204.95     0  01:48      2.99    0.04    0.14
  WS02006229WS02006228 CONDUIT    476.21     0  01:59      0.95    1.58    1.00
  WS02006256WS02006235 CONDUIT    287.72     0  07:43      4.18    3.05    1.00
  WS02006253WS02006251 CONDUIT     41.45     0  01:48      0.49    0.12    0.27
  WS02006252WS02006251 CONDUIT      0.00     0  00:00      0.00    0.00    0.00
  WS02006251WS02006249 CONDUIT     41.47     0  01:49      0.54    0.12    0.27
  WS02006249WS02006248 CONDUIT     41.26     0  01:46      0.64    0.23    0.29
  WS02006248WS02006247 CONDUIT     41.02     0  01:47      0.62    0.09    0.36
  WS02006247WS02006245 CONDUIT     41.52     0  01:46      0.56    0.33    0.42
  WS02006245WS02006243 CONDUIT     41.83     0  01:42      0.70    0.12    0.48
  WS02006243WS02006242 CONDUIT     58.25     0  04:47      0.55    0.12    0.62
  WS02006242WS02006240 CONDUIT     80.20     0  04:47      0.70    0.32    0.72
  WS02006240WS02006239 CONDUIT    102.15     0  04:46      0.75    0.32    0.74
  WS02006239WS02006238 CONDUIT    127.75     0  04:46      0.85    0.41    0.86
  WS02006238WS02006235 CONDUIT    189.22     0  05:53      1.16    0.42    0.90
  WS02006235WS02006234 CONDUIT    280.88     0  02:27      1.12    2.96    0.85
  WS02006234WS02006232 CONDUIT    281.34     0  02:27      0.94    0.57    0.93
  WS02006232WS02006231 CONDUIT    281.68     0  02:28      0.86    0.59    0.90
  WS02006231WS02006230 CONDUIT    282.35     0  02:27      1.21    4.28    0.78
  WS02006230WS02006229 CONDUIT    293.45     0  02:28      0.76    6.53    1.00
  WS02006228WS02006109 CONDUIT    476.21     0  02:00      0.95    2.08    1.00
  WS02006116WS02004401 CONDUIT    484.43     0  02:04      0.72    0.67    0.82
  WS02006115WS02006116 CONDUIT    484.59     0  02:04      0.94    0.62    0.73
  WS02006113WS02006111 CONDUIT    492.93     0  02:04      2.36    0.59    0.43
  WS02006112WS02006115 CONDUIT    485.69     0  02:04      0.68    0.29    0.86
  WS02006111WS02006112 CONDUIT    481.12     0  02:04      1.36    0.23    0.66
  WS02006110WS02006113 CONDUIT    477.56     0  02:00      1.16    0.43    0.77
  WS02006109WS02006110 CONDUIT    477.44     0  02:00      0.95    0.92    0.98
  WS02004411WS02004412 CONDUIT    482.78     0  02:07      0.92    0.69    0.66
  WS02004401WS02004402 CONDUIT    483.88     0  02:04      0.69    0.58    0.84
  WS02004413WS02003067 CONDUIT    482.46     0  02:07      1.05    0.21    0.57
  WS02004412WS02004413 CONDUIT    482.72     0  02:07      0.90    0.32    0.75
  WS02004410WS02004411 CONDUIT    483.01     0  02:06      0.89    0.66    0.65
  WS02004409WS02004410 CONDUIT    483.09     0  02:02      0.92    0.62    0.64
  WS02004407WS02004409 CONDUIT    483.61     0  02:02      1.42    0.17    0.45
  WS02004406WS02004407 CONDUIT    483.77     0  02:02      0.98    0.22    0.60
  WS02004405WS02004406 CONDUIT    487.11     0  02:02      0.64    0.96    0.93
  WS02004404WS02004405 CONDUIT    537.57     0  02:05      0.71    5.27    0.94
  WS02004403WS02004404 CONDUIT    495.21     0  02:05      0.66    0.36    0.92
  WS02004402WS02004403 CONDUIT    486.10     0  02:05      0.67    0.70    0.86
  WS02004139WS02001211 CONDUIT    286.50     0  01:29      0.54    0.36    0.53
  WS02004138WS02004139 CONDUIT    285.00     0  02:38      2.39    0.06    0.39
  WS02003067WS02003066 CONDUIT    482.50     0  02:07      1.14    0.15    0.40
  WS02001213WS02003059 CONDUIT    297.74     0  04:59      0.59    0.49    0.71
  WS02001212WS02001213 CONDUIT    295.65     0  05:00      1.19    0.46    0.40
  WS02001211WS02001212 CONDUIT    294.60     0  05:01      0.67    0.23    0.58
  WS02003072WS02003073 CONDUIT    791.12     0  02:12      1.62    1.71    0.45
  WS02003069WS02003072 CONDUIT    791.13     0  02:11      1.53    0.38    0.47
  WS02003060WS02003069 CONDUIT    790.82     0  02:11      1.79    0.31    0.41
  WS02003059WS02003060 CONDUIT    300.78     0  04:59      0.82    0.20    0.61
  HS02004901HS02004770 CONDUIT      9.56     0  01:34      0.07    0.04    0.31
  HS02004876HS02004881 CONDUIT     36.52     0  01:48      0.58    0.39    0.09
  HS02004870HS02004876 CONDUIT     29.13     0  01:48      0.41    0.02    0.10
  HS02004842HS02004848 CONDUIT      6.70     0  02:15      0.03    0.00    0.28
  HS02004837HS02004842 CONDUIT      6.74     0  02:19      0.42    0.00    0.29
  HS02004830HS02004837 CONDUIT     25.25     0  01:48      0.45    0.03    0.08
  HS02004824HS02004830 CONDUIT     25.40     0  01:49      0.49    0.03    0.07
  HS02004817HS02004824 CONDUIT     43.36     0  01:51      0.17    0.02    0.40
  HS02004770HS02004777 CONDUIT     49.22     0  01:34      0.24    0.09    0.33
  HS02004799HS02004480 CONDUIT    124.88     0  01:45      0.58    0.16    0.31
  HS02004792HS02004799 CONDUIT    113.70     0  01:45      0.67    0.07    0.24
  HS02004788HS02004792 CONDUIT     66.20     0  01:45      0.82    0.04    0.12
  HS02004785HS02004788 CONDUIT     49.21     0  01:37      0.50    0.37    0.14
  HS02004777HS02004785 CONDUIT     49.09     0  01:36      0.26    0.06    0.27
  HS02004480HS02004478 CONDUIT    148.09     0  01:45      0.95    0.62    0.22
  HS02004479HS02004480 CONDUIT     23.44     0  01:49      0.35    0.02    0.30
  HS02004862HS02004870 CONDUIT     21.72     0  01:49      0.48    0.02    0.06
  HS02004848HS02004852 CONDUIT      9.08     0  01:48      0.32    0.01    0.04
  HS02004856HS02004862 CONDUIT     14.59     0  01:48      0.35    0.01    0.06
  HS02004852HS02004856 CONDUIT      9.06     0  01:50      0.14    0.01    0.10
  HS02004802HS02004478 CONDUIT     57.80     0  01:51      0.33    0.05    0.26
  HS02004478WS02006287 CONDUIT    204.86     0  01:47      1.32    0.06    0.17
  HS02004817HS02004807 CONDUIT     44.26     0  01:53      0.12    0.03    0.52
  HS02004807HS02004802 CONDUIT     57.58     0  01:51      0.27    0.11    0.30
  YS02001759YS02001757 CONDUIT    369.57     0  02:35      0.47    0.26    1.00
  YS02001762YS02001759 CONDUIT    202.22     0  02:35      0.26    0.23    1.00
  YS02001765YS02001762 CONDUIT    197.93     0  02:35      0.31    0.19    1.00
  YS02001770YS02001767 CONDUIT    189.45     0  02:35      0.39    0.75    1.00
  YS02001774YS02001770 CONDUIT    262.14     0  03:17      0.33    0.17    1.00
  YS02001779YS02001774 CONDUIT    263.07     0  03:17      0.33    0.13    1.00
  YS02001649YS02001757 CONDUIT    577.10     0  02:48      0.73    0.35    1.00
  YS02001767YS02001765 CONDUIT    193.50     0  02:35      0.38    0.24    1.00
  YS02006561YS02001783 CONDUIT    630.15     0  03:02      2.12    0.33    0.58
  YS02001783YS02001784 CONDUIT    619.52     0  03:00      1.55    0.85    0.75
  YS02001784YS02001785 CONDUIT    619.09     0  03:01      1.66    1.44    0.70
  YS02001788YS02001790 CONDUIT    618.68     0  03:01      2.20    0.46    0.55
  YS02001790YS02001791 CONDUIT    623.96     0  03:01      2.64    0.68    0.48
  YS02001791YS02001793 CONDUIT    677.37     0  02:54      4.46    0.29    0.69
  YS02001910YS02001907 CONDUIT    223.82     0  03:00      0.49    0.13    0.91
  YS02001786YS02001788 CONDUIT    619.22     0  03:01      2.12    1.19    0.57
  YS02001915YS02001910 CONDUIT    222.57     0  02:55      0.62    0.11    0.71
  YS02001918YS02001915 CONDUIT     88.33     0  03:01      0.44    0.05    0.43
  YS02001923YS02001920 CONDUIT     70.58     0  03:01      0.60    0.03    0.23
  YS02001926YS02001923 CONDUIT     70.55     0  03:01      0.68    0.10    0.19
  YS02001929YS02001926 CONDUIT     70.62     0  03:01      0.73    0.03    0.18
  YS02001920YS02001918 CONDUIT     80.70     0  03:01      0.59    0.08    0.29
  YS02001629YS02163301 CONDUIT    160.13     0  02:36      0.20    0.20    1.00
  YS02001619YS02001622 CONDUIT    149.54     0  02:28      0.63    0.22    1.00
  YS02001622YS02001625 CONDUIT    176.30     0  02:27      0.42    0.09    1.00
  YS02001625YS02001629 CONDUIT    176.09     0  02:27      0.25    0.08    1.00
  YS02163301YS02001633 CONDUIT    159.37     0  02:36      0.20    0.15    1.00
  YS02163601YS02164001 CONDUIT    291.92     0  02:36      0.37    0.26    1.00
  YS02164001YS02001641 CONDUIT    297.41     0  02:42      0.38    0.41    1.00
  YS02001641YS02001644 CONDUIT    300.26     0  02:42      0.38    0.97    1.00
  YS02001647YS02001649 CONDUIT    459.59     0  03:14      0.59    0.24    1.00
  YS02006553YS02006556 CONDUIT    438.99     0  03:00      0.56    0.38    0.99
  YS02006556YS02006558 CONDUIT    469.92     0  03:01      0.60    0.37    1.00
  YSB6556YSB1171       CONDUIT     13.32     0  01:48      0.09    0.01    0.57
  YS02001907YS02006553 CONDUIT    441.44     0  03:02      0.49    0.52    1.00
  YS02006558YS02006561 CONDUIT    670.04     0  03:01      3.09    1.48    0.74
  YS02001633YS02163601 CONDUIT    292.23     0  02:36      0.37    0.31    1.00
  YS02001644YS02001647 CONDUIT    460.96     0  03:14      0.59    0.27    1.00
  YS02001745YS02001748 CONDUIT    382.46     0  02:35      1.46    0.15    0.94
  YS02001748YS02001751 CONDUIT    311.53     0  02:25      1.08    0.16    1.00
  YS02001751YS02001754 CONDUIT    189.32     0  02:23      0.95    0.09    1.00
  YS02001754YS02001757 CONDUIT    190.07     0  02:23      0.33    0.08    1.00
  YS02001882YS02001884 CONDUIT     11.78     0  02:28      0.15    0.01    0.65
  YS02001884YS02001887 CONDUIT     19.61     0  02:28      0.11    0.03    0.74
  YS02001890YS02001895 CONDUIT    228.18     0  03:01      0.39    0.11    0.71
  YS02001895YS02001898 CONDUIT    224.48     0  03:01      0.55    0.39    0.57
  YS02001898YS02001901 CONDUIT    227.48     0  02:57      0.43    0.15    0.65
  YS02001901YS02001904 CONDUIT    227.61     0  02:50      0.40    0.35    0.70
  YS02001904YS02001907 CONDUIT    233.25     0  02:55      0.33    0.08    0.85
  YS02001887YS02001890 CONDUIT    226.21     0  02:56      0.34    0.39    0.79
  YS02001652YS02001649 CONDUIT    217.31     0  02:52      0.68    0.11    1.00
  YS02001655YS02001652 CONDUIT    214.51     0  02:52      1.03    0.10    1.00
  YS02001658YS02001655 CONDUIT    262.50     0  02:23      1.26    0.11    1.00
  YS02001661YS02001658 CONDUIT    527.32     0  02:35      1.53    0.21    1.00
  YS02001664YS02001661 CONDUIT    563.44     0  02:52      1.36    0.18    0.72
  YSB1154YSB6556       CONDUIT     13.26     0  01:46      0.16    0.02    0.46
  YSB1174YSB1171       CONDUIT     11.00     0  01:31      0.06    0.02    0.58
  YSB1171HS02004479    CONDUIT     23.31     0  01:48      0.54    0.02    0.44
  HS02004881HS02006253 CONDUIT     40.49     0  01:48      1.69    0.01    0.03
  YS02001793JiankangQianchi CONDUIT   1013.70     0  01:56      1.81    0.08    1.00
  YS02001757CaochengTiaoxuchi CONDUIT   1044.43     0  02:46      1.44    0.46    1.00
  WSF200WS02003060     CONDUIT    482.60     0  02:08      1.58    0.11    0.31
  1                    CONDUIT    792.93     0  02:13      3.12    0.28    0.36
  CC-Pump-1            PUMP         0.00     0  00:00              0.00
  CC-Pump-2            PUMP         0.00     0  00:00              0.00
  JK-Pump-1            PUMP       300.00     0  01:39              1.00
  JK-Pump-2            PUMP       683.00     0  02:00              1.00
  XR-Pump-1            PUMP        95.00     0  00:00              1.00
  XR-Pump-2            PUMP        95.00     0  00:25              1.00
  XR-Pump-3            PUMP        95.00     0  01:27              1.00
  XR-Pump-4            PUMP         0.00     0  00:00              0.00
  
  
  ***************************
  Flow Classification Summary
  ***************************
  
  -------------------------------------------------------------------------------------
                      Adjusted    ---------- Fraction of Time in Flow Class ---------- 
                       /Actual         Up    Down  Sub   Sup   Up    Down  Norm  Inlet 
  Conduit               Length    Dry  Dry   Dry   Crit  Crit  Crit  Crit  Ltd   Ctrl  
  -------------------------------------------------------------------------------------
  WS02003066WSF200        1.00   0.16  0.00  0.00  0.00  0.84  0.00  0.00  0.74  0.00
  WS02006287WS02006284    1.00   0.06  0.03  0.00  0.43  0.48  0.00  0.00  0.77  0.00
  WS02006284WS02006280    1.00   0.08  0.00  0.00  0.00  0.00  0.00  0.92  0.00  0.00
  WS02006280WS02006229    1.00   0.08  0.00  0.00  0.00  0.00  0.00  0.92  0.00  0.00
  WS02006229WS02006228    1.00   0.00  0.00  0.00  0.99  0.00  0.00  0.01  0.00  0.00
  WS02006256WS02006235    1.00   0.11  0.00  0.00  0.88  0.01  0.00  0.00  0.01  0.00
  WS02006253WS02006251    1.00   0.03  0.04  0.00  0.92  0.00  0.01  0.00  0.00  0.00
  WS02006252WS02006251    1.00   1.00  0.00  0.00  0.00  0.00  0.00  0.00  0.00  0.00
  WS02006251WS02006249    1.00   0.00  0.00  0.00  1.00  0.00  0.00  0.00  0.77  0.00
  WS02006249WS02006248    1.00   0.00  0.01  0.00  0.60  0.00  0.39  0.00  0.00  0.00
  WS02006248WS02006247    1.00   0.01  0.00  0.00  0.96  0.00  0.00  0.03  0.37  0.00
  WS02006247WS02006245    1.00   0.01  0.00  0.00  0.93  0.00  0.00  0.06  0.00  0.00
  WS02006245WS02006243    1.00   0.02  0.00  0.00  0.90  0.00  0.00  0.09  0.02  0.00
  WS02006243WS02006242    1.00   0.02  0.00  0.00  0.90  0.00  0.00  0.08  0.24  0.00
  WS02006242WS02006240    1.00   0.03  0.06  0.00  0.89  0.00  0.02  0.00  0.00  0.00
  WS02006240WS02006239    1.00   0.09  0.00  0.00  0.87  0.00  0.00  0.04  0.03  0.00
  WS02006239WS02006238    1.00   0.09  0.00  0.00  0.89  0.00  0.00  0.02  0.00  0.00
  WS02006238WS02006235    1.00   0.10  0.01  0.00  0.89  0.00  0.00  0.00  0.00  0.00
  WS02006235WS02006234    1.00   0.11  0.00  0.00  0.86  0.00  0.03  0.00  0.00  0.00
  WS02006234WS02006232    1.00   0.11  0.00  0.00  0.89  0.00  0.00  0.00  0.01  0.00
  WS02006232WS02006231    1.00   0.11  0.00  0.00  0.88  0.00  0.00  0.00  0.00  0.00
  WS02006231WS02006230    1.00   0.10  0.00  0.00  0.43  0.00  0.46  0.00  0.00  0.00
  WS02006230WS02006229    1.00   0.00  0.00  0.00  0.98  0.00  0.00  0.02  0.01  0.00
  WS02006228WS02006109    1.00   0.00  0.00  0.00  1.00  0.00  0.00  0.00  0.01  0.00
  WS02006116WS02004401    1.00   0.06  0.00  0.00  0.94  0.00  0.00  0.00  0.00  0.00
  WS02006115WS02006116    1.00   0.06  0.00  0.00  0.89  0.00  0.00  0.05  0.00  0.00
  WS02006113WS02006111    1.00   0.04  0.00  0.00  0.02  0.95  0.00  0.00  0.32  0.00
  WS02006112WS02006115    1.00   0.04  0.02  0.00  0.94  0.00  0.00  0.00  0.00  0.00
  WS02006111WS02006112    1.00   0.04  0.00  0.00  0.95  0.00  0.00  0.01  0.92  0.00
  WS02006110WS02006113    1.00   0.01  0.03  0.00  0.97  0.00  0.00  0.00  0.00  0.00
  WS02006109WS02006110    1.00   0.00  0.01  0.00  0.99  0.00  0.01  0.00  0.00  0.00
  WS02004411WS02004412    1.00   0.13  0.00  0.00  0.87  0.00  0.00  0.00  0.00  0.00
  WS02004401WS02004402    1.00   0.06  0.00  0.00  0.94  0.00  0.00  0.00  0.04  0.00
  WS02004413WS02003067    1.00   0.13  0.02  0.00  0.00  0.00  0.85  0.00  0.00  0.00
  WS02004412WS02004413    1.00   0.13  0.00  0.00  0.86  0.01  0.00  0.00  0.00  0.00
  WS02004410WS02004411    1.00   0.13  0.00  0.00  0.87  0.00  0.00  0.00  0.00  0.00
  WS02004409WS02004410    1.00   0.12  0.00  0.00  0.88  0.00  0.00  0.00  0.00  0.00
  WS02004407WS02004409    1.00   0.12  0.00  0.00  0.86  0.01  0.00  0.00  0.80  0.00
  WS02004406WS02004407    1.00   0.00  0.12  0.00  0.88  0.00  0.00  0.00  0.00  0.00
  WS02004405WS02004406    1.00   0.00  0.00  0.00  1.00  0.00  0.00  0.00  0.04  0.00
  WS02004404WS02004405    1.00   0.00  0.00  0.00  1.00  0.00  0.00  0.00  0.02  0.00
  WS02004403WS02004404    1.00   0.00  0.06  0.00  0.94  0.00  0.00  0.00  0.04  0.00
  WS02004402WS02004403    1.00   0.06  0.00  0.00  0.94  0.00  0.00  0.00  0.00  0.00
  WS02004139WS02001211    1.00   0.00  0.00  0.00  1.00  0.00  0.00  0.00  0.00  0.00
  WS02004138WS02004139    1.00   0.00  0.00  0.00  0.99  0.00  0.00  0.00  1.00  0.00
  WS02003067WS02003066    1.00   0.15  0.01  0.00  0.84  0.00  0.00  0.00  0.00  0.00
  WS02001213WS02003059    1.00   0.00  0.00  0.00  1.00  0.00  0.00  0.00  0.00  0.00
  WS02001212WS02001213    1.00   0.00  0.00  0.00  0.59  0.00  0.41  0.00  0.00  0.00
  WS02001211WS02001212    1.00   0.00  0.00  0.00  1.00  0.00  0.00  0.00  0.00  0.00
  WS02003072WS02003073    1.00   0.00  0.00  0.00  0.00  0.00  0.00  1.00  0.00  0.00
  WS02003069WS02003072    1.00   0.00  0.00  0.00  1.00  0.00  0.00  0.00  0.22  0.00
  WS02003060WS02003069    1.00   0.00  0.00  0.00  0.99  0.01  0.00  0.00  0.15  0.00
  WS02003059WS02003060    1.00   0.00  0.00  0.00  1.00  0.00  0.00  0.00  0.02  0.00
  HS02004901HS02004770    1.00   0.07  0.00  0.00  0.93  0.00  0.00  0.00  0.00  0.00
  HS02004876HS02004881    1.00   0.01  0.00  0.00  0.99  0.00  0.00  0.00  0.00  0.00
  HS02004870HS02004876    1.00   0.00  0.00  0.00  0.99  0.00  0.00  0.00  0.95  0.00
  HS02004842HS02004848    1.00   0.00  0.07  0.00  0.93  0.00  0.00  0.00  0.58  0.00
  HS02004837HS02004842    1.00   0.00  0.00  0.00  1.00  0.00  0.00  0.00  0.11  0.00
  HS02004830HS02004837    1.00   0.00  0.00  0.00  1.00  0.00  0.00  0.00  0.99  0.00
  HS02004824HS02004830    1.00   0.00  0.00  0.00  1.00  0.00  0.00  0.00  0.00  0.00
  HS02004817HS02004824    1.00   0.00  0.00  0.00  1.00  0.00  0.00  0.00  1.00  0.00
  HS02004770HS02004777    1.00   0.00  0.07  0.00  0.93  0.00  0.00  0.00  0.02  0.00
  HS02004799HS02004480    1.00   0.00  0.02  0.00  0.91  0.00  0.07  0.00  0.00  0.00
  HS02004792HS02004799    1.00   0.00  0.00  0.00  0.99  0.01  0.00  0.00  0.98  0.00
  HS02004788HS02004792    1.00   0.00  0.00  0.00  0.99  0.01  0.00  0.00  0.98  0.00
  HS02004785HS02004788    1.00   0.00  0.00  0.00  1.00  0.00  0.00  0.00  0.00  0.00
  HS02004777HS02004785    1.00   0.00  0.00  0.00  1.00  0.00  0.00  0.00  0.11  0.00
  HS02004480HS02004478    1.00   0.07  0.00  0.00  0.47  0.00  0.00  0.46  0.00  0.00
  HS02004479HS02004480    1.00   0.02  0.00  0.00  0.98  0.00  0.00  0.00  0.11  0.00
  HS02004862HS02004870    1.00   0.00  0.00  0.00  1.00  0.00  0.00  0.00  0.03  0.00
  HS02004848HS02004852    1.00   0.07  0.00  0.00  0.93  0.00  0.00  0.00  0.78  0.00
  HS02004856HS02004862    1.00   0.00  0.09  0.00  0.91  0.00  0.00  0.00  0.84  0.00
  HS02004852HS02004856    1.00   0.07  0.00  0.00  0.92  0.00  0.00  0.00  0.86  0.00
  HS02004802HS02004478    1.00   0.07  0.00  0.00  0.92  0.00  0.00  0.00  0.02  0.00
  HS02004478WS02006287    1.00   0.09  0.00  0.00  0.67  0.24  0.00  0.00  0.77  0.00
  HS02004817HS02004807    1.00   0.00  0.07  0.00  0.93  0.00  0.00  0.00  0.01  0.00
  HS02004807HS02004802    1.00   0.07  0.00  0.00  0.92  0.00  0.00  0.01  0.00  0.00
  YS02001759YS02001757    1.00   0.00  0.00  0.00  1.00  0.00  0.00  0.00  0.15  0.00
  YS02001762YS02001759    1.00   0.00  0.00  0.00  1.00  0.00  0.00  0.00  0.02  0.00
  YS02001765YS02001762    1.00   0.00  0.00  0.00  1.00  0.00  0.00  0.00  0.13  0.00
  YS02001770YS02001767    1.00   0.00  0.00  0.00  1.00  0.00  0.00  0.00  0.00  0.00
  YS02001774YS02001770    1.00   0.00  0.07  0.00  0.93  0.00  0.00  0.00  0.02  0.00
  YS02001779YS02001774    1.00   0.00  0.00  0.00  1.00  0.00  0.00  0.00  0.17  0.00
  YS02001649YS02001757    1.00   0.00  0.00  0.00  1.00  0.00  0.00  0.00  0.15  0.00
  YS02001767YS02001765    1.00   0.00  0.00  0.00  1.00  0.00  0.00  0.00  0.00  0.00
  YS02006561YS02001783    1.00   0.10  0.00  0.00  0.00  0.90  0.00  0.00  0.59  0.00
  YS02001783YS02001784    1.00   0.00  0.10  0.00  0.90  0.00  0.00  0.00  0.00  0.00
  YS02001784YS02001785    1.00   0.00  0.00  0.00  1.00  0.00  0.00  0.00  0.16  0.00
  YS02001788YS02001790    1.00   0.00  0.00  0.00  0.11  0.89  0.00  0.00  0.55  0.00
  YS02001790YS02001791    1.00   0.00  0.00  0.00  0.01  0.99  0.00  0.00  0.78  0.00
  YS02001791YS02001793    1.00   0.00  0.00  0.00  0.37  0.63  0.00  0.00  0.44  0.00
  YS02001910YS02001907    1.00   0.00  0.00  0.00  0.98  0.00  0.00  0.01  0.12  0.00
  YS02001786YS02001788    1.00   0.00  0.00  0.00  0.11  0.89  0.00  0.00  0.00  0.00
  YS02001915YS02001910    1.00   0.00  0.00  0.00  0.98  0.02  0.00  0.00  0.14  0.00
  YS02001918YS02001915    1.00   0.00  0.00  0.00  0.99  0.01  0.00  0.00  0.63  0.00
  YS02001923YS02001920    1.00   0.00  0.00  0.00  1.00  0.00  0.00  0.00  1.00  0.00
  YS02001926YS02001923    1.00   0.00  0.04  0.00  0.00  0.00  0.96  0.00  0.00  0.00
  YS02001929YS02001926    1.00   0.00  0.07  0.00  0.93  0.00  0.00  0.00  0.87  0.00
  YS02001920YS02001918    1.00   0.00  0.00  0.00  1.00  0.00  0.00  0.00  0.00  0.00
  YS02001629YS02163301    1.00   0.08  0.01  0.00  0.91  0.00  0.00  0.00  0.00  0.00
  YS02001619YS02001622    1.00   0.07  0.00  0.00  0.93  0.00  0.00  0.00  0.00  0.00
  YS02001622YS02001625    1.00   0.07  0.00  0.00  0.93  0.00  0.00  0.00  0.03  0.00
  YS02001625YS02001629    1.00   0.07  0.03  0.00  0.86  0.00  0.04  0.00  0.00  0.00
  YS02163301YS02001633    1.00   0.00  0.08  0.00  0.92  0.00  0.00  0.00  0.00  0.00
  YS02163601YS02164001    1.00   0.00  0.05  0.00  0.95  0.00  0.00  0.00  0.00  0.00
  YS02164001YS02001641    1.00   0.00  0.04  0.00  0.95  0.00  0.00  0.00  0.06  0.00
  YS02001641YS02001644    1.00   0.00  0.00  0.00  1.00  0.00  0.00  0.00  0.00  0.00
  YS02001647YS02001649    1.00   0.00  0.09  0.00  0.91  0.00  0.00  0.00  0.01  0.00
  YS02006553YS02006556    1.00   0.01  0.00  0.00  0.99  0.00  0.00  0.00  0.03  0.00
  YS02006556YS02006558    1.00   0.00  0.00  0.00  1.00  0.00  0.00  0.00  0.00  0.00
  YSB6556YSB1171          1.00   0.02  0.05  0.00  0.93  0.00  0.00  0.00  0.00  0.00
  YS02001907YS02006553    1.00   0.00  0.01  0.00  0.99  0.00  0.00  0.00  0.00  0.00
  YS02006558YS02006561    1.00   0.10  0.00  0.00  0.00  0.90  0.00  0.00  0.65  0.00
  YS02001633YS02163601    1.00   0.00  0.00  0.00  1.00  0.00  0.00  0.00  0.15  0.00
  YS02001644YS02001647    1.00   0.00  0.09  0.00  0.91  0.00  0.00  0.00  0.00  0.00
  YS02001745YS02001748    1.00   0.00  0.00  0.00  0.82  0.01  0.00  0.17  0.05  0.00
  YS02001748YS02001751    1.00   0.00  0.00  0.00  0.94  0.06  0.00  0.00  0.15  0.00
  YS02001751YS02001754    1.00   0.00  0.00  0.00  0.89  0.00  0.00  0.11  0.02  0.00
  YS02001754YS02001757    1.00   0.00  0.00  0.00  1.00  0.00  0.00  0.00  0.17  0.00
  YS02001882YS02001884    1.00   0.08  0.00  0.00  0.92  0.00  0.00  0.00  0.00  0.00
  YS02001884YS02001887    1.00   0.03  0.03  0.00  0.94  0.00  0.00  0.00  0.00  0.00
  YS02001890YS02001895    1.00   0.00  0.08  0.00  0.91  0.00  0.00  0.00  0.00  0.00
  YS02001895YS02001898    1.00   0.09  0.00  0.00  0.89  0.00  0.02  0.00  0.00  0.00
  YS02001898YS02001901    1.00   0.09  0.00  0.00  0.91  0.00  0.00  0.00  0.01  0.00
  YS02001901YS02001904    1.00   0.09  0.00  0.00  0.91  0.00  0.00  0.00  0.00  0.00
  YS02001904YS02001907    1.00   0.00  0.09  0.00  0.91  0.00  0.00  0.00  0.00  0.00
  YS02001887YS02001890    1.00   0.00  0.00  0.00  0.98  0.00  0.02  0.00  0.00  0.00
  YS02001652YS02001649    1.00   0.00  0.00  0.00  0.99  0.01  0.00  0.00  0.15  0.00
  YS02001655YS02001652    1.00   0.00  0.00  0.00  0.89  0.00  0.00  0.11  0.02  0.00
  YS02001658YS02001655    1.00   0.00  0.08  0.00  0.87  0.06  0.00  0.00  0.06  0.00
  YS02001661YS02001658    1.00   0.08  0.00  0.00  0.82  0.11  0.00  0.00  0.08  0.00
  YS02001664YS02001661    1.00   0.07  0.00  0.00  0.81  0.12  0.00  0.00  0.21  0.00
  YSB1154YSB6556          1.00   0.07  0.00  0.00  0.93  0.00  0.00  0.00  0.01  0.00
  YSB1174YSB1171          1.00   0.03  0.02  0.00  0.95  0.00  0.00  0.00  0.00  0.00
  YSB1171HS02004479       1.00   0.02  0.00  0.00  0.97  0.00  0.00  0.01  0.10  0.00
  HS02004881HS02006253    1.00   0.03  0.00  0.00  0.00  0.00  0.00  0.97  0.00  0.00
  YS02001793JiankangQianchi    1.00   0.00  0.00  0.00  1.00  0.00  0.00  0.00  0.47  0.00
  YS02001757CaochengTiaoxuchi    1.00   0.00  0.13  0.00  0.87  0.00  0.00  0.00  0.00  0.00
  WSF200WS02003060        1.00   0.00  0.16  0.00  0.84  0.00  0.00  0.00  0.54  0.00
  1                       1.00   0.00  0.00  0.00  0.00  1.00  0.00  0.00  0.35  0.00
  
  
  *************************
  Conduit Surcharge Summary
  *************************
  
  ----------------------------------------------------------------------------
                                                           Hours        Hours 
                         --------- Hours Full --------   Above Full   Capacity
  Conduit                Both Ends  Upstream  Dnstream   Normal Flow   Limited
  ----------------------------------------------------------------------------
  WS02006229WS02006228        1.40      1.43      1.40      2.07         1.40
  WS02006256WS02006235        4.89      4.94      6.27      4.41         0.01
  WS02006235WS02006234        0.01      0.01      0.01      4.61         0.01
  WS02006231WS02006230        0.01      0.01      0.01      5.18         0.01
  WS02006230WS02006229        1.62      1.81      1.62      5.73         1.62
  WS02006228WS02006109        1.42      1.52      1.42      3.35         1.42
  WS02006112WS02006115        0.01      0.01      0.44      0.01         0.01
  WS02006111WS02006112        0.01      0.01      2.89      0.01         0.01
  WS02006110WS02006113        0.01      0.01      1.48      0.01         0.01
  WS02006109WS02006110        0.01      0.01      1.52      0.01         0.01
  WS02004404WS02004405        0.01      0.01      0.01      5.45         0.01
  WS02003072WS02003073        0.01      0.01      0.01      4.18         0.01
  YS02001759YS02001757        5.98      5.98      6.06      0.01         0.01
  YS02001762YS02001759        5.95      5.95      5.98      0.01         0.01
  YS02001765YS02001762        5.91      5.91      5.95      0.01         0.01
  YS02001770YS02001767        5.87      5.88      5.88      0.01         0.59
  YS02001774YS02001770        5.85      5.85      5.94      0.01         0.01
  YS02001779YS02001774        5.64      5.64      5.94      0.01         0.01
  YS02001649YS02001757        5.95      5.95      6.06      0.01         0.01
  YS02001767YS02001765        5.88      5.88      5.91      0.01         0.01
  YS02001784YS02001785        0.01      0.01      0.01      1.49         0.01
  YS02001791YS02001793        0.01      0.01      0.33      0.01         0.01
  YS02001910YS02001907        0.01      0.01      0.54      0.01         0.01
  YS02001786YS02001788        0.01      0.01      0.01      0.93         0.01
  YS02001629YS02163301        5.84      5.84      5.87      0.01         0.01
  YS02001619YS02001622        5.30      5.30      5.35      0.01         0.01
  YS02001622YS02001625        5.35      5.35      5.79      0.01         0.01
  YS02001625YS02001629        5.32      5.32      5.79      0.01         0.01
  YS02163301YS02001633        5.87      5.87      5.91      0.01         0.01
  YS02163601YS02164001        5.91      5.91      5.95      0.01         0.01
  YS02164001YS02001641        5.91      5.91      5.92      0.01         0.01
  YS02001641YS02001644        5.92      5.92      5.93      0.01         0.71
  YS02001647YS02001649        5.76      5.76      5.95      0.01         0.01
  YS02006553YS02006556        0.01      0.01      0.82      0.01         0.01
  YS02006556YS02006558        0.04      0.04      0.95      0.01         0.01
  YS02001907YS02006553        1.55      1.55      1.81      0.01         0.01
  YS02006558YS02006561        0.01      0.01      0.01      1.30         0.01
  YS02001633YS02163601        5.90      5.90      5.95      0.01         0.01
  YS02001644YS02001647        5.76      5.76      5.93      0.01         0.01
  YS02001745YS02001748        0.01      0.01      5.10      0.01         0.01
  YS02001748YS02001751        5.16      5.16      5.35      0.01         0.01
  YS02001751YS02001754        5.35      5.35      5.66      0.01         0.01
  YS02001754YS02001757        5.74      5.74      6.06      0.01         0.01
  YS02001904YS02001907        0.01      0.01      0.85      0.01         0.01
  YS02001652YS02001649        5.77      5.77      5.95      0.01         0.01
  YS02001655YS02001652        5.37      5.37      5.73      0.01         0.01
  YS02001658YS02001655        5.12      5.12      5.37      0.01         0.01
  YS02001661YS02001658        0.04      0.04      5.13      0.01         0.01
  YS02001664YS02001661        0.01      0.01      0.27      0.01         0.01
  YS02001793JiankangQianchi        0.01      0.01      7.82      0.01         0.01
  YS02001757CaochengTiaoxuchi        5.11      5.11      6.06      0.01         0.01
  
  
  ***************
  Pumping Summary
  ***************
  
  ---------------------------------------------------------------------------------------------------------
                                                  Min       Avg       Max     Total     Power    % Time Off
                        Percent   Number of      Flow      Flow      Flow    Volume     Usage    Pump Curve
  Pump                 Utilized   Start-Ups       LPS       LPS       LPS  10^6 ltr     Kw-hr    Low   High
  ---------------------------------------------------------------------------------------------------------
  CC-Pump-1                0.00           0      0.00      0.00      0.00     0.000      0.00    0.0    0.0
  CC-Pump-2                0.00           0      0.00      0.00      0.00     0.000      0.00    0.0    0.0
  JK-Pump-1               56.06          10      0.00    300.00    300.00     4.743     52.77    0.0    0.0
  JK-Pump-2                7.46          37      0.00    683.00    683.00     1.436     14.78    0.0  100.0
  XR-Pump-1              100.00           1      0.00     95.00     95.00     2.679     14.79    0.0    0.0
  XR-Pump-2               94.70           1      0.00     95.00     95.00     2.537     13.36    0.0    0.0
  XR-Pump-3               81.29           1      0.00     95.00     95.00     2.178     10.56    0.0    0.0
  XR-Pump-4                0.00           0      0.00      0.00      0.00     0.000      0.00    0.0    0.0
  
  
  ***************************
  Link Pollutant Load Summary
  ***************************
  
  ------------------------------------------------------------------------------------------
                                 COD            SS            TN            TP         NH4-N
  Link                            kg            kg            kg            kg            kg
  ------------------------------------------------------------------------------------------
  WS02003066WSF200           481.546       841.959        15.402         1.466         8.455
  WS02006287WS02006284       163.230       287.697         7.335         0.796         4.252
  WS02006284WS02006280       163.748       288.529         7.383         0.802         4.282
  WS02006280WS02006229       163.719       288.483         7.380         0.802         4.280
  WS02006229WS02006228       483.905       844.153        15.463         1.468         8.485
  WS02006256WS02006235       302.721       521.480         7.779         0.649         4.069
  WS02006253WS02006251        23.397        43.594         0.564         0.044         0.284
  WS02006252WS02006251         0.000         0.000         0.000         0.000         0.000
  WS02006251WS02006249        23.997        44.580         0.616         0.050         0.317
  WS02006249WS02006248        23.963        44.492         0.617         0.050         0.317
  WS02006248WS02006247        24.385        45.218         0.630         0.051         0.324
  WS02006247WS02006245        25.787        47.486         0.686         0.057         0.356
  WS02006245WS02006243        27.818        50.844         0.751         0.063         0.391
  WS02006243WS02006242        32.039        57.777         0.867         0.073         0.452
  WS02006242WS02006240        39.387        69.683         1.079         0.091         0.565
  WS02006240WS02006239        46.257        80.738         1.300         0.111         0.685
  WS02006239WS02006238        53.433        92.152         1.545         0.134         0.821
  WS02006238WS02006235        57.679        98.781         1.694         0.148         0.903
  WS02006235WS02006234       322.601       559.411         8.198         0.678         4.271
  WS02006234WS02006232       322.653       559.560         8.198         0.678         4.271
  WS02006232WS02006231       321.879       558.289         8.168         0.675         4.254
  WS02006231WS02006230       321.550       557.754         8.155         0.674         4.247
  WS02006230WS02006229       321.140       557.194         8.133         0.672         4.234
  WS02006228WS02006109       482.977       842.746        15.407         1.462         8.452
  WS02006116WS02004401       490.278       855.630        15.900         1.522         8.752
  WS02006115WS02006116       490.964       856.648        15.944         1.527         8.779
  WS02006113WS02006111       488.792       852.115        16.034         1.542         8.846
  WS02006112WS02006115       491.813       858.017        16.000         1.534         8.812
  WS02006111WS02006112       488.475       851.660        16.007         1.538         8.830
  WS02006110WS02006113       489.240       852.834        16.066         1.545         8.866
  WS02006109WS02006110       490.485       854.824        16.160         1.557         8.923
  WS02004411WS02004412       484.017       845.913        15.552         1.484         8.545
  WS02004401WS02004402       489.335       854.122        15.844         1.516         8.719
  WS02004413WS02003067       482.121       842.850        15.434         1.470         8.475
  WS02004412WS02004413       483.175       844.599        15.501         1.478         8.515
  WS02004410WS02004411       484.597       846.806        15.588         1.488         8.567
  WS02004409WS02004410       485.077       847.554        15.619         1.491         8.586
  WS02004407WS02004409       485.441       848.091        15.642         1.494         8.600
  WS02004406WS02004407       485.557       848.232        15.650         1.495         8.605
  WS02004405WS02004406       487.460       851.290        15.783         1.511         8.686
  WS02004404WS02004405       488.036       852.101        15.810         1.513         8.701
  WS02004403WS02004404       487.610       851.399        15.744         1.505         8.659
  WS02004402WS02004403       488.453       852.751        15.792         1.510         8.688
  WS02004139WS02001211      1155.960      1867.539       103.592        12.816        64.353
  WS02004138WS02004139      1161.216      1876.056       104.047        12.872        64.635
  WS02003067WS02003066       481.603       842.046        15.406         1.467         8.458
  WS02001213WS02003059      1191.086      1923.507       107.070        13.253        66.532
  WS02001212WS02001213      1198.023      1934.733       107.678        13.328        66.909
  WS02001211WS02001212      1200.313      1938.413       107.891        13.354        67.042
  WS02003072WS02003073      1773.497      2926.737       132.273        15.947        81.119
  WS02003069WS02003072      1778.255      2934.358       132.718        16.002        81.397
  WS02003060WS02003069      1779.923      2937.059       132.845        16.017        81.474
  WS02003059WS02003060      1188.377      1919.108       106.839        13.225        66.389
  HS02004901HS02004770         5.096         9.257         0.099         0.007         0.046
  HS02004876HS02004881        19.731        36.665         0.500         0.039         0.254
  HS02004870HS02004876        14.973        27.718         0.416         0.034         0.215
  HS02004842HS02004848         3.066         5.506         0.067         0.004         0.030
  HS02004837HS02004842         7.707        12.891         0.537         0.064         0.326
  HS02004830HS02004837        55.018        91.152         4.358         0.532         2.690
  HS02004824HS02004830        55.768        92.354         4.430         0.541         2.735
  HS02004817HS02004824        67.289       114.031         4.679         0.556         2.856
  HS02004770HS02004777        19.683        36.143         0.425         0.028         0.193
  HS02004799HS02004480        72.654       128.837         2.549         0.253         1.401
  HS02004792HS02004799        66.429       116.766         2.481         0.253         1.377
  HS02004788HS02004792        40.749        71.581         1.840         0.196         1.053
  HS02004785HS02004788        21.097        38.398         0.573         0.047         0.287
  HS02004777HS02004785        20.430        37.327         0.511         0.039         0.249
  HS02004480HS02004478        90.172       161.703         2.806         0.269         1.515
  HS02004479HS02004480        21.120        38.649         0.570         0.054         0.308
  HS02004862HS02004870        11.105        20.163         0.339         0.030         0.178
  HS02004848HS02004852         3.707         6.688         0.080         0.005         0.036
  HS02004856HS02004862         6.890        12.822         0.142         0.009         0.066
  HS02004852HS02004856         3.718         6.708         0.080         0.005         0.037
  HS02004802HS02004478        73.984       127.503         4.596         0.536         2.778
  HS02004478WS02006287       163.427       288.014         7.353         0.799         4.264
  HS02004817HS02004807        65.875       111.782         4.538         0.539         2.768
  HS02004807HS02004802        74.172       127.793         4.627         0.540         2.798
  YS02001759YS02001757       208.150       363.452         4.386         0.304         2.160
  YS02001762YS02001759       102.580       180.352         2.355         0.169         1.182
  YS02001765YS02001762       102.559       180.560         2.379         0.171         1.198
  YS02001770YS02001767       101.028       178.627         2.129         0.137         1.035
  YS02001774YS02001770        45.788        82.047         0.951         0.061         0.462
  YS02001779YS02001774        45.231        80.892         1.058         0.078         0.535
  YS02001649YS02001757       293.006       502.032         6.213         0.432         3.016
  YS02001767YS02001765       103.005       181.533         2.408         0.174         1.214
  YS02006561YS02001783       500.226       870.771        11.751         0.927         6.006
  YS02001783YS02001784       500.129       870.630        11.746         0.926         6.004
  YS02001784YS02001785       507.473       882.398        12.458         1.016         6.449
  YS02001788YS02001790       508.117       883.456        12.531         1.025         6.495
  YS02001790YS02001791       509.093       885.031        12.629         1.037         6.557
  YS02001791YS02001793       509.072       885.016        12.628         1.037         6.556
  YS02001910YS02001907       169.498       290.778         5.124         0.441         2.755
  YS02001786YS02001788       507.691       882.760        12.486         1.019         6.467
  YS02001915YS02001910       169.518       290.776         5.086         0.436         2.730
  YS02001918YS02001915        83.032       136.323         3.220         0.332         1.839
  YS02001923YS02001920        63.107       104.488         1.275         0.088         0.622
  YS02001926YS02001923        62.757       103.929         1.236         0.083         0.598
  YS02001929YS02001926        62.514       103.528         1.205         0.079         0.578
  YS02001920YS02001918        83.016       136.344         3.193         0.328         1.821
  YS02001629YS02163301        67.997       115.973         1.465         0.093         0.679
  YS02001619YS02001622        71.191       120.943         1.541         0.097         0.714
  YS02001622YS02001625        70.166       119.368         1.516         0.096         0.702
  YS02001625YS02001629        69.003       117.624         1.487         0.094         0.689
  YS02163301YS02001633        67.963       115.929         1.462         0.093         0.679
  YS02163601YS02164001       190.607       323.361         3.934         0.275         1.883
  YS02164001YS02001641       190.251       322.779         3.916         0.273         1.873
  YS02001641YS02001644       190.652       323.419         3.917         0.273         1.873
  YS02001647YS02001649       287.277       490.291         6.113         0.424         2.967
  YS02006553YS02006556       361.422       627.201         8.767         0.714         4.541
  YS02006556YS02006558       361.449       627.251         8.731         0.709         4.517
  YSB6556YSB1171              11.791        21.717         0.266         0.023         0.139
  YS02001907YS02006553       361.426       627.216         8.789         0.717         4.556
  YS02006558YS02006561       500.117       870.561        11.749         0.927         6.006
  YS02001633YS02163601       191.228       324.291         3.912         0.271         1.866
  YS02001644YS02001647       290.759       496.695         6.166         0.428         2.992
  YS02001745YS02001748       106.402       184.815         2.776         0.211         1.433
  YS02001748YS02001751       105.193       182.506         2.860         0.225         1.494
  YS02001751YS02001754       104.317       181.111         2.843         0.225         1.486
  YS02001754YS02001757       105.167       182.443         3.006         0.247         1.592
  YS02001882YS02001884         1.805         3.024         0.037         0.003         0.019
  YS02001884YS02001887         4.873         8.351         0.098         0.008         0.049
  YS02001890YS02001895       193.036       338.044         3.690         0.278         1.814
  YS02001895YS02001898       192.873       337.811         3.684         0.277         1.810
  YS02001898YS02001901       192.777       337.681         3.681         0.277         1.808
  YS02001901YS02001904       192.680       337.561         3.689         0.278         1.814
  YS02001904YS02001907       193.057       338.205         3.744         0.285         1.849
  YS02001887YS02001890       193.841       339.277         3.744         0.284         1.846
  YS02001652YS02001649        71.698       122.691         1.576         0.113         0.738
  YS02001655YS02001652        72.646       124.183         1.601         0.115         0.750
  YS02001658YS02001655        72.472       123.854         1.524         0.104         0.698
  YS02001661YS02001658        77.331       132.275         1.625         0.111         0.745
  YS02001664YS02001661        84.725       144.957         1.781         0.121         0.816
  YSB1154YSB6556              11.375        21.050         0.219         0.017         0.109
  YSB1174YSB1171               7.816        14.502         0.172         0.015         0.088
  YSB1171HS02004479           21.058        38.541         0.574         0.055         0.311
  HS02004881HS02006253        22.250        41.475         0.547         0.042         0.276
  YS02001793JiankangQianchi       516.263       897.071        12.873         1.061         6.692
  YS02001757CaochengTiaoxuchi       313.192       548.241         6.929         0.520         3.446
  WSF200WS02003060           481.165       841.368        15.381         1.464         8.443
  1                         1780.522      2937.862       133.059        16.047        81.615
  CC-Pump-1                    0.000         0.000         0.000         0.000         0.000
  CC-Pump-2                    0.000         0.000         0.000         0.000         0.000
  JK-Pump-1                  364.611       628.491         9.340         0.779         4.882
  JK-Pump-2                  134.782       241.486         2.899         0.220         1.454
  XR-Pump-1                  410.151       662.293        36.890         4.567        22.925
  XR-Pump-2                  403.110       651.028        36.214         4.482        22.502
  XR-Pump-3                  350.434       566.747        31.158         3.850        19.342
  XR-Pump-4                    0.000         0.000         0.000         0.000         0.000
  

  Analysis begun on:  Sat Jul 10 16:23:45 2021
  Analysis ended on:  Sat Jul 10 16:23:47 2021
  Total elapsed time: 00:00:02