
  EPA STORM WATER MANAGEMENT MODEL - VERSION 5.1 (Build 5.3.0.dev0)
  --------------------------------------------------------------

  WARNING 04: minimum elevation drop used for Conduit WS02004404WS02004405
  WARNING 03: negative offset ignored for Link YS02001904YS02001907
  
  *********************************************************
  NOTE: The summary statistics displayed in this report are
  based on results found at every computational time step,  
  not just on results from each reporting time step.
  *********************************************************
  
  ****************
  Analysis Options
  ****************
  Flow Units ............... LPS
  Process Models:
    Rainfall/Runoff ........ YES
    RDII ................... NO
    Snowmelt ............... NO
    Groundwater ............ NO
    Flow Routing ........... YES
    Ponding Allowed ........ NO
    Water Quality .......... NO
  Infiltration Method ...... HORTON
  Flow Routing Method ...... DYNWAVE
  Surcharge Method ......... EXTRAN
  Starting Date ............ 08/28/2015 08:00:00
  Ending Date .............. 08/28/2015 15:50:00
  Antecedent Dry Days ...... 8.0
  Report Time Step ......... 00:01:00
  Wet Time Step ............ 00:01:00
  Dry Time Step ............ 00:01:00
  Routing Time Step ........ 5.00 sec
  Variable Time Step ....... YES
  Maximum Trials ........... 8
  Number of Threads ........ 4
  Head Tolerance ........... 0.001500 m
  
  
  **************************        Volume         Depth
  Runoff Quantity Continuity     hectare-m            mm
  **************************     ---------       -------
  Total Precipitation ......        10.887        23.836
  Evaporation Loss .........         0.000         0.000
  Infiltration Loss ........         2.344         5.132
  Surface Runoff ...........         7.303        15.990
  Final Storage ............         1.241         2.717
  Continuity Error (%) .....        -0.012
  
  
  **************************        Volume        Volume
  Flow Routing Continuity        hectare-m      10^6 ltr
  **************************     ---------     ---------
  Dry Weather Inflow .......         0.616         6.165
  Wet Weather Inflow .......         7.301        73.014
  Groundwater Inflow .......         0.000         0.000
  RDII Inflow ..............         0.000         0.000
  External Inflow ..........         0.102         1.024
  External Outflow .........         3.481        34.806
  Flooding Loss ............         4.210        42.100
  Evaporation Loss .........         0.000         0.000
  Exfiltration Loss ........         0.000         0.000
  Initial Stored Volume ....         0.076         0.761
  Final Stored Volume ......         0.610         6.099
  Continuity Error (%) .....        -2.522
  
  
  *************************
  Highest Continuity Errors
  *************************
  Node JK-storage (-14.52%)
  Node YS02001884 (9.51%)
  Node HS02004842 (8.73%)
  Node HS02004817 (1.69%)
  Node YSB1171 (1.47%)
  
  
  ***************************
  Time-Step Critical Elements
  ***************************
  Link 3 (94.80%)
  Link WS02006280WS02006229 (1.38%)
  
  
  ********************************
  Highest Flow Instability Indexes
  ********************************
  Link WS02006252WS02006251 (36)
  Link YS02001619YS02001622 (28)
  Link YS02001629YS02163301 (27)
  Link YS02163601YS02164001 (27)
  Link YS02163301YS02001633 (27)
  
  
  *************************
  Routing Time Step Summary
  *************************
  Minimum Time Step           :     0.29 sec
  Average Time Step           :     0.67 sec
  Maximum Time Step           :     5.00 sec
  Percent in Steady State     :    -0.00
  Average Iterations per Step :     3.94
  Percent Not Converging      :    15.92
  
  
  ***************************
  Subcatchment Runoff Summary
  ***************************
  
  ------------------------------------------------------------------------------------------------------------------------------
                            Total      Total      Total      Total     Imperv       Perv      Total       Total     Peak  Runoff
                           Precip      Runon       Evap      Infil     Runoff     Runoff     Runoff      Runoff   Runoff   Coeff
  Subcatchment                 mm         mm         mm         mm         mm         mm         mm    10^6 ltr      LPS
  ------------------------------------------------------------------------------------------------------------------------------
  sub0                      23.84       0.00       0.00       1.03      20.90       0.64      21.54        0.02     4.74   0.904
  sub1                      23.84       0.00       0.00       1.74      19.95       0.88      20.83        0.14    30.53   0.874
  sub2                      23.84       0.00       0.00       6.87      14.10       1.95      16.05        0.15    28.29   0.673
  sub3                      23.84       0.00       0.00       7.14      14.06       1.68      15.74        0.35    61.76   0.660
  sub4                      23.84       0.00       0.00       1.87      19.78       0.75      20.54        0.43    72.83   0.862
  sub5                      23.84       0.00       0.00       1.08      20.85       0.59      21.44        0.24    54.28   0.899
  sub7                      23.84       0.00       0.00       1.37      20.44       0.77      21.21        0.07    17.57   0.890
  sub8                      23.84       0.00       0.00       1.38      20.42       0.76      21.19        0.14    32.08   0.889
  sub9                      23.84       0.00       0.00       1.39      20.42       0.76      21.18        0.10    23.95   0.889
  sub10                     23.84       0.00       0.00       1.24      20.63       0.67      21.30        0.23    53.40   0.894
  sub11                     23.84       0.00       0.00       1.22      20.65       0.69      21.34        0.25    59.71   0.895
  sub12                     23.84       0.00       0.00       1.98      19.55       1.11      20.66        0.18    46.17   0.867
  sub14                     23.84       0.00       0.00       1.39      20.42       0.76      21.18        0.20    47.08   0.888
  sub15                     23.84       0.00       0.00       5.16      15.70       1.99      17.70        0.30    64.58   0.742
  sub16                     23.84       0.00       0.00       5.46      15.05       2.40      17.45        0.18    41.69   0.732
  sub17                     23.84       0.00       0.00       5.32      15.27       2.31      17.58        0.15    34.22   0.738
  sub22                     23.84       0.00       0.00       7.63      12.80       2.62      15.42        0.97   202.91   0.647
  sub23                     23.84       0.00       0.00       6.37      14.15       2.45      16.60        0.79   171.10   0.696
  sub60                     23.84       0.00       0.00       2.46      17.68       0.40      18.08        5.48   635.50   0.759
  sub61                     23.84       0.00       0.00       3.48      17.44       0.57      18.00        5.55   687.97   0.755
  sub62                     23.84       0.00       0.00       1.52      19.11       0.39      19.50        5.99   726.55   0.818
  sub63                     23.84       0.00       0.00       6.22      15.11       0.70      15.81        4.78   606.27   0.663
  sub64                     23.84       0.00       0.00       3.15      17.01       0.42      17.43        5.30   611.50   0.731
  sub65                     23.84       0.00       0.00       2.70      17.34       0.40      17.73        5.45   625.37   0.744
  sub66                     23.84       0.00       0.00       6.42      14.44       0.49      14.93        4.58   541.58   0.626
  sub67                     23.84       0.00       0.00       1.46      19.71       0.45      20.16        6.22   787.40   0.846
  sub68                     23.84       0.00       0.00       2.78      18.22       0.56      18.78        5.78   724.10   0.788
  sub69                     23.84       0.00       0.00       2.86      18.50       0.72      19.22        4.49   586.55   0.806
  sub70                     23.84      19.62       0.00       9.95      26.14       3.78      29.92        6.85   801.71   0.689
  sub71                     23.84       0.00       0.00       1.54      18.81       0.36      19.18        4.53   536.91   0.805
  sub72                     23.84       0.00       0.00       1.45      16.32       0.22      16.55        3.37   330.66   0.694
  sub73                     23.84      29.13       0.00       9.95      31.58       5.28      36.86        8.66   884.85   0.696
  sub74                     23.84       0.00       0.00      17.30       5.48       0.57       6.05        2.42   323.16   0.254
  
  
  ******************
  Node Depth Summary
  ******************
  
  ---------------------------------------------------------------------------------
                                 Average  Maximum  Maximum  Time of Max    Reported
                                   Depth    Depth      HGL   Occurrence   Max Depth
  Node                 Type       Meters   Meters   Meters  days hr:min      Meters
  ---------------------------------------------------------------------------------
  WS02001211           JUNCTION     0.72     0.78     5.62     0  01:44        0.78
  WS02001212           JUNCTION     0.44     0.52     5.58     0  01:45        0.52
  WS02001213           JUNCTION     0.69     0.80     5.57     0  01:43        0.80
  WS02003069           JUNCTION     0.52     0.68     5.27     0  01:44        0.68
  WS02003072           JUNCTION     0.58     0.73     5.10     0  01:44        0.73
  WS02003073           JUNCTION     0.36     0.46     4.52     0  01:45        0.46
  WS02003060           JUNCTION     0.46     0.60     5.53     0  01:44        0.60
  WS02003066           JUNCTION     0.28     0.38     5.94     0  01:40        0.38
  WS02003059           JUNCTION     0.75     0.87     5.55     0  01:44        0.87
  WS02003067           JUNCTION     0.65     0.82     6.14     0  01:38        0.82
  WS02004401           JUNCTION     0.82     1.51     7.51     0  01:31        1.22
  WS02004402           JUNCTION     0.84     1.27     7.23     0  01:31        1.21
  WS02004403           JUNCTION     0.85     1.40     7.33     0  01:31        1.19
  WS02004404           JUNCTION     0.92     1.31     7.16     0  01:32        1.24
  WS02004406           JUNCTION     0.91     1.47     7.30     0  01:32        1.16
  WS02004409           JUNCTION     0.62     0.95     6.72     0  01:38        0.95
  WS02004410           JUNCTION     0.63     0.94     6.66     0  01:39        0.94
  WS02004411           JUNCTION     0.64     0.92     6.60     0  01:38        0.92
  WS02004412           JUNCTION     0.65     0.90     6.54     0  01:39        0.90
  WS02004413           JUNCTION     0.80     1.02     6.49     0  01:39        1.02
  WS02004405           JUNCTION     0.91     1.32     7.17     0  01:32        1.21
  WS02006109           JUNCTION     0.92     1.63     8.24     0  01:37        1.61
  WS02006110           JUNCTION     0.88     1.43     8.01     0  01:37        1.42
  WS02006111           JUNCTION     0.32     0.88     7.58     0  01:37        0.87
  WS02006112           JUNCTION     1.02     1.81     7.69     0  01:31        1.54
  WS02006113           JUNCTION     0.43     0.91     7.80     0  01:37        0.90
  WS02006115           JUNCTION     0.73     1.95     8.09     0  01:31        1.21
  WS02006116           JUNCTION     0.80     1.81     7.85     0  01:31        1.36
  WS02006230           JUNCTION     0.97     1.81     8.56     0  01:37        1.80
  WS02006231           JUNCTION     0.68     1.54     8.66     0  01:29        1.43
  WS02006232           JUNCTION     0.81     1.85     8.89     0  01:29        1.51
  WS02006234           JUNCTION     0.75     1.96     9.12     0  01:29        1.40
  WS02006235           JUNCTION     0.78     2.00     9.16     0  01:29        1.40
  WS02006238           JUNCTION     0.81     2.11     9.25     0  01:29        1.43
  WS02006240           JUNCTION     0.73     2.05     9.34     0  01:29        1.31
  WS02006242           JUNCTION     0.79     1.55     8.82     0  01:29        1.34
  WS02006243           JUNCTION     0.68     1.48     8.90     0  01:29        1.21
  WS02006245           JUNCTION     0.65     1.56     9.04     0  01:29        1.16
  WS02006247           JUNCTION     0.65     1.47     8.97     0  01:29        1.15
  WS02006248           JUNCTION     0.59     1.10     8.69     0  01:29        1.07
  WS02006249           JUNCTION     0.60     1.09     8.69     0  01:35        1.07
  WS02006239           JUNCTION     0.78     2.03     9.24     0  01:29        1.37
  WS02006251           JUNCTION     0.64     1.25     8.92     0  01:35        1.20
  WS02006252           JUNCTION     0.56     0.80     9.04     0  01:35        0.75
  WS02006253           JUNCTION     0.67     1.29     8.93     0  01:35        1.23
  WS02006256           JUNCTION     1.18     2.35     9.28     0  00:00        1.54
  WS02004138           JUNCTION     0.17     0.17     7.42     0  00:00        0.17
  WS02004407           JUNCTION     0.28     0.40     6.71     0  01:38        0.40
  WS02006228           JUNCTION     0.96     1.79     8.44     0  01:37        1.78
  WS02006229           JUNCTION     0.96     1.86     8.55     0  01:37        1.85
  WS02006280           JUNCTION     0.10     0.37     8.64     0  01:36        0.37
  WS02006284           JUNCTION     0.41     0.68     9.08     0  01:36        0.68
  WS02006287           JUNCTION     0.14     0.43     9.38     0  01:36        0.43
  WSF200               JUNCTION     0.28     0.43     5.66     0  01:41        0.43
  HS02004901           JUNCTION     0.16     0.40    10.23     0  01:33        0.40
  HS02004881           JUNCTION     0.02     0.06     9.09     0  01:36        0.06
  HS02004876           JUNCTION     0.06     0.18     9.21     0  01:36        0.18
  HS02004870           JUNCTION     0.03     0.11     9.39     0  01:36        0.11
  HS02004862           JUNCTION     0.03     0.12     9.50     0  01:37        0.12
  HS02004856           JUNCTION     0.09     0.16     9.59     0  01:37        0.16
  HS02004852           JUNCTION     0.02     0.09     9.60     0  01:37        0.09
  HS02004848           JUNCTION     0.02     0.08     9.68     0  01:37        0.08
  HS02004842           JUNCTION     0.34     0.41     9.68     0  01:37        0.41
  HS02004837           JUNCTION     0.04     0.10     9.68     0  01:37        0.10
  HS02004830           JUNCTION     0.05     0.13     9.60     0  01:36        0.13
  HS02004824           JUNCTION     0.04     0.17     9.57     0  01:36        0.17
  HS02004817           JUNCTION     0.48     0.74     9.59     0  01:35        0.74
  HS02004807           JUNCTION     0.16     0.41     9.58     0  01:36        0.40
  HS02004802           JUNCTION     0.20     0.44     9.56     0  01:36        0.44
  HS02004799           JUNCTION     0.17     0.51     9.72     0  01:34        0.51
  HS02004792           JUNCTION     0.06     0.24     9.76     0  01:33        0.24
  HS02004788           JUNCTION     0.05     0.17    10.07     0  01:34        0.17
  HS02004785           JUNCTION     0.08     0.27    10.17     0  01:33        0.27
  HS02004777           JUNCTION     0.18     0.41    10.21     0  01:33        0.41
  HS02004770           JUNCTION     0.15     0.39    10.22     0  01:33        0.39
  HS02004480           JUNCTION     0.13     0.42     9.66     0  01:34        0.42
  HS02004479           JUNCTION     0.16     0.46     9.66     0  01:34        0.46
  HS02004478           JUNCTION     0.10     0.32     9.54     0  01:36        0.32
  YS02001745           JUNCTION     0.81     1.83     9.34     0  01:33        1.03
  YS02001748           JUNCTION     1.22     2.27     9.35     0  01:32        1.45
  YS02001751           JUNCTION     1.41     2.20     9.08     0  01:32        1.62
  YS02001754           JUNCTION     1.66     2.20     8.81     0  01:32        1.87
  YS02001762           JUNCTION     1.86     2.08     8.48     0  01:33        2.06
  YS02001765           JUNCTION     1.82     2.03     8.48     0  01:33        2.01
  YS02001767           JUNCTION     1.78     1.97     8.46     0  01:33        1.96
  YS02001770           JUNCTION     1.77     1.95     8.44     0  01:31        1.95
  YS02001774           JUNCTION     1.84     2.03     8.46     0  01:31        1.99
  YS02001779           JUNCTION     1.57     1.68     8.37     0  01:30        1.68
  YS02001882           JUNCTION     0.87     1.64     8.36     0  01:52        1.64
  YS02001884           JUNCTION     0.96     1.74     8.36     0  01:59        1.73
  YS02001759           JUNCTION     1.90     2.12     8.49     0  01:33        2.10
  YS02001887           JUNCTION     1.04     1.82     8.36     0  02:00        1.81
  YS02001890           JUNCTION     1.07     1.81     8.32     0  01:37        1.81
  YS02001898           JUNCTION     0.83     1.56     8.30     0  02:04        1.56
  YS02001901           JUNCTION     0.95     1.68     8.29     0  01:50        1.67
  YS02001904           JUNCTION     0.92     1.64     8.27     0  01:43        1.63
  YS02001907           JUNCTION     1.25     1.96     8.25     0  01:38        1.96
  YS02001910           JUNCTION     1.05     1.82     8.33     0  01:39        1.79
  YS02001915           JUNCTION     0.85     1.67     8.39     0  01:39        1.62
  YS02001918           JUNCTION     0.57     1.43     8.49     0  01:39        1.32
  YS02001619           JUNCTION     1.36     1.61     8.54     0  01:31        1.50
  YS02001629           JUNCTION     1.72     1.85     8.40     0  01:31        1.85
  YS02001641           JUNCTION     1.81     1.95     8.39     0  01:32        1.93
  YS02001644           JUNCTION     1.81     1.92     8.35     0  01:32        1.92
  YS02001652           JUNCTION     1.67     2.16     8.76     0  01:33        1.90
  YS02001655           JUNCTION     1.43     2.20     9.05     0  01:32        1.72
  YS02001920           JUNCTION     0.67     1.53     8.54     0  01:39        1.41
  YS02001923           JUNCTION     0.48     1.31     8.57     0  01:39        1.19
  YS02001926           JUNCTION     0.47     1.13     8.57     0  01:39        1.04
  YS02001929           JUNCTION     0.31     0.89     8.58     0  01:39        0.83
  YS02001658           JUNCTION     1.16     2.30     9.44     0  01:32        1.51
  YS02001661           JUNCTION     0.92     2.46     9.86     0  01:33        1.48
  YS02001664           JUNCTION     0.41     0.76     8.69     0  01:33        0.71
  YS02001622           JUNCTION     1.38     1.62     8.52     0  01:31        1.51
  YS02001633           JUNCTION     1.81     1.97     8.42     0  01:32        1.95
  YS02001649           JUNCTION     1.87     2.05     8.44     0  01:32        2.05
  YS02001757           JUNCTION     1.99     2.21     8.47     0  01:32        2.20
  YS02001895           JUNCTION     0.83     1.57     8.31     0  02:13        1.56
  YS02001625           JUNCTION     1.66     1.78     8.38     0  01:31        1.78
  YS02163301           JUNCTION     1.75     1.91     8.43     0  01:31        1.89
  YS02163601           JUNCTION     1.86     2.02     8.41     0  01:32        1.99
  YS02164001           JUNCTION     1.79     1.95     8.40     0  01:32        1.92
  YS02001647           JUNCTION     1.65     1.83     8.44     0  01:32        1.79
  YSB1154              JUNCTION     0.30     0.61     9.67     0  01:34        0.61
  YSB6556              JUNCTION     0.20     0.50     9.67     0  01:34        0.50
  YSB1174              JUNCTION     0.25     0.56     9.67     0  01:34        0.56
  YSB1171              JUNCTION     0.46     0.76     9.67     0  01:34        0.76
  YS02006553           JUNCTION     1.25     2.13     8.41     0  01:45        1.97
  YS02006561           JUNCTION     0.54     1.69     8.35     0  01:45        1.09
  YS02006556           JUNCTION     1.22     2.30     8.61     0  01:45        1.93
  YS02006558           JUNCTION     1.26     2.43     8.70     0  01:45        1.98
  YS02001783           JUNCTION     0.81     2.17     8.31     0  01:45        1.48
  YS02001784           JUNCTION     0.81     2.14     8.20     0  01:45        1.42
  YS02001786           JUNCTION     0.71     1.92     7.95     0  01:45        1.26
  YS02001788           JUNCTION     0.62     1.71     7.68     0  01:45        1.13
  YS02001790           JUNCTION     0.73     1.68     7.32     0  01:45        1.29
  YS02001791           JUNCTION     0.69     1.56     7.03     0  01:44        1.27
  YS02001793           JUNCTION     0.93     1.80     6.64     0  01:55        1.80
  WS02004139           JUNCTION     0.66     0.72     5.63     0  01:43        0.72
  WSC                  OUTFALL      0.36     0.45     1.12     0  01:45        0.45
  3                    OUTFALL      0.19     0.30     6.30     0  01:29        0.30
  4                    OUTFALL      0.12     0.30     7.30     0  01:32        0.30
  5                    OUTFALL      0.00     0.00     5.00     0  00:00        0.00
  JK-storage           STORAGE      3.09     5.80     6.60     0  01:45        5.80
  CC-storage           STORAGE      1.21     1.43     8.43     0  03:04        1.43
  XR-storage           STORAGE      7.39     7.72     5.72     0  01:51        7.72
  
  
  *******************
  Node Inflow Summary
  *******************
  
  -------------------------------------------------------------------------------------------------
                                  Maximum  Maximum                  Lateral       Total        Flow
                                  Lateral    Total  Time of Max      Inflow      Inflow     Balance
                                   Inflow   Inflow   Occurrence      Volume      Volume       Error
  Node                 Type           LPS      LPS  days hr:min    10^6 ltr    10^6 ltr     Percent
  -------------------------------------------------------------------------------------------------
  WS02001211           JUNCTION      7.35   295.41     0  03:14       0.207        8.21       0.445
  WS02001212           JUNCTION      0.00   298.42     0  03:15           0        8.17       0.257
  WS02001213           JUNCTION      0.00   300.98     0  03:15           0        8.15       0.311
  WS02003069           JUNCTION      0.32  1216.98     0  01:44     0.00902        20.4       0.170
  WS02003072           JUNCTION      0.00  1216.81     0  01:45           0        20.4       0.202
  WS02003073           JUNCTION      1.82  1218.87     0  01:45      0.0514        20.4       0.231
  WS02003060           JUNCTION     16.53  1217.23     0  01:44       0.466        20.4       0.159
  WS02003066           JUNCTION      0.00   929.96     0  01:39           0        11.9       0.044
  WS02003059           JUNCTION      0.00   304.38     0  03:14           0        8.13       0.484
  WS02003067           JUNCTION      0.00   929.95     0  01:39           0        11.9       0.087
  WS02004401           JUNCTION      0.00   932.52     0  01:37           0        12.2       0.199
  WS02004402           JUNCTION      0.00   933.08     0  01:37           0        12.1       0.185
  WS02004403           JUNCTION      0.00   933.02     0  01:37           0        12.1       0.165
  WS02004404           JUNCTION      0.16   933.68     0  01:37     0.00457        12.1       0.122
  WS02004406           JUNCTION      0.00   932.82     0  01:37           0        12.1       0.296
  WS02004409           JUNCTION      0.00   932.39     0  01:38           0          12       0.165
  WS02004410           JUNCTION      0.00   930.09     0  01:39           0          12       0.183
  WS02004411           JUNCTION      0.00   930.14     0  01:39           0          12       0.185
  WS02004412           JUNCTION      0.00   929.45     0  01:39           0          12       0.195
  WS02004413           JUNCTION      0.00   929.94     0  01:39           0        11.9       0.286
  WS02004405           JUNCTION      0.04   933.89     0  01:37     0.00107        12.1       0.183
  WS02006109           JUNCTION      1.23   900.86     0  01:37      0.0347        12.1       0.184
  WS02006110           JUNCTION      0.00   901.14     0  01:37           0        12.1       0.179
  WS02006111           JUNCTION      0.00   900.88     0  01:37           0        12.1       0.041
  WS02006112           JUNCTION     34.22   932.46     0  01:37       0.151        12.2       0.245
  WS02006113           JUNCTION      0.00   900.77     0  01:37           0        12.1       0.100
  WS02006115           JUNCTION      0.00   932.53     0  01:37           0        12.2       0.199
  WS02006116           JUNCTION      0.00   932.83     0  01:37           0        12.2       0.149
  WS02006230           JUNCTION     10.28   403.09     0  05:39        0.29        8.09       0.209
  WS02006231           JUNCTION      0.00   392.80     0  05:40           0        7.79       0.150
  WS02006232           JUNCTION      0.00   392.80     0  05:39           0        7.79       0.226
  WS02006234           JUNCTION      0.00   392.79     0  05:39           0         7.8       0.141
  WS02006235           JUNCTION      0.00   392.79     0  05:39           0        7.91       0.138
  WS02006238           JUNCTION      0.00   308.26     0  07:49           0        6.19       0.147
  WS02006240           JUNCTION      0.00   308.20     0  07:50           0        6.18       0.246
  WS02006242           JUNCTION      0.00   329.37     0  01:29           0         6.2       0.313
  WS02006243           JUNCTION      0.00   389.94     0  01:29           0         6.2       0.221
  WS02006245           JUNCTION      0.00   409.66     0  01:29           0        6.22       0.203
  WS02006247           JUNCTION      0.00   421.56     0  01:29           0        6.23       0.171
  WS02006248           JUNCTION      0.00   429.10     0  01:28           0        6.24       0.131
  WS02006249           JUNCTION      0.00   583.76     0  01:36           0          10       0.140
  WS02006239           JUNCTION      0.00   308.25     0  07:50           0        6.18       0.232
  WS02006251           JUNCTION      0.08   580.78     0  01:35     0.00217          10       0.141
  WS02006252           JUNCTION      0.00   400.00     0  01:27           0         9.2       0.005
  WS02006253           JUNCTION      4.74   178.65     0  01:36      0.0174       0.835       0.970
  WS02006256           JUNCTION      0.00   670.79     0  01:34           0        12.4       0.022
  WS02004138           JUNCTION      0.00   285.00     0  00:00           0        8.04       0.064
  WS02004407           JUNCTION      0.00   932.87     0  01:37           0          12       0.074
  WS02006228           JUNCTION      0.00   899.70     0  01:37           0        12.1       0.138
  WS02006229           JUNCTION      0.00   906.66     0  01:36           0        12.2       0.118
  WS02006280           JUNCTION      0.00   821.20     0  01:36           0        4.12       0.003
  WS02006284           JUNCTION      0.10   821.20     0  01:36      0.0027        4.12       0.023
  WS02006287           JUNCTION      0.00   821.03     0  01:36           0        4.12       0.018
  WSF200               JUNCTION      0.00   929.82     0  01:39           0        11.9       0.046
  HS02004901           JUNCTION     41.69    41.69     0  01:31       0.183       0.183       0.971
  HS02004881           JUNCTION     17.57   174.52     0  01:36      0.0714       0.818       0.072
  HS02004876           JUNCTION     30.53   157.87     0  01:36       0.139       0.747       0.075
  HS02004870           JUNCTION     32.08   127.65     0  01:36       0.135       0.609       0.018
  HS02004862           JUNCTION     28.49    96.84     0  01:37       0.155       0.474       0.037
  HS02004856           JUNCTION     23.95    68.40     0  01:36       0.102        0.32       0.455
  HS02004852           JUNCTION      0.00    45.40     0  01:37           0       0.218       0.028
  HS02004848           JUNCTION     61.76    61.76     0  01:40       0.354       0.354       0.013
  HS02004842           JUNCTION      0.00    18.52     0  01:51           0       0.149       9.567
  HS02004837           JUNCTION     59.75    74.34     0  01:37       0.414        0.55       0.147
  HS02004830           JUNCTION      0.15    74.45     0  01:37     0.00423        0.54       0.229
  HS02004824           JUNCTION     72.88   147.18     0  01:41        0.43       0.969       0.056
  HS02004817           JUNCTION      0.60   149.77     0  01:41      0.0169       0.985       1.724
  HS02004807           JUNCTION     59.71   204.45     0  01:37       0.248        1.22       0.360
  HS02004802           JUNCTION      0.00   204.76     0  01:39           0        1.22       0.327
  HS02004799           JUNCTION     47.08   525.51     0  01:33       0.202         2.5       0.119
  HS02004792           JUNCTION    203.19   478.62     0  01:33       0.982         2.3       0.016
  HS02004788           JUNCTION     66.25   277.11     0  01:34       0.351        1.32       0.029
  HS02004785           JUNCTION      0.15   210.94     0  01:33     0.00423       0.971       0.053
  HS02004777           JUNCTION      0.03   211.16     0  01:32    0.000846       0.971       0.540
  HS02004770           JUNCTION    171.10   212.05     0  01:32       0.791       0.973       0.316
  HS02004480           JUNCTION      0.00   623.60     0  01:34           0        2.92       0.035
  HS02004479           JUNCTION      0.00    98.35     0  01:34           0       0.432       0.172
  HS02004478           JUNCTION      0.00   821.02     0  01:35           0        4.12       0.008
  YS02001745           JUNCTION    635.50   635.50     0  03:01        5.48        5.48       0.164
  YS02001748           JUNCTION      0.04   636.32     0  03:01     0.00127        5.47       0.405
  YS02001751           JUNCTION      0.01   636.36     0  03:01     0.00031        5.46       0.442
  YS02001754           JUNCTION      0.26   636.67     0  03:01     0.00733        5.44       0.446
  YS02001762           JUNCTION      0.00   363.53     0  01:46           0        2.78       0.762
  YS02001765           JUNCTION      0.00   364.40     0  01:46           0        2.77       0.880
  YS02001767           JUNCTION      0.54   364.95     0  01:46      0.0151         2.8       1.289
  YS02001770           JUNCTION    726.70  1014.19     0  03:01           6        7.03       0.446
  YS02001774           JUNCTION      0.00   851.17     0  03:08           0        5.14       0.487
  YS02001779           JUNCTION      0.01   851.17     0  03:08    0.000141        5.11       0.301
  YS02001882           JUNCTION      0.00    48.10     0  01:34           0      0.0327       7.997
  YS02001884           JUNCTION      0.00    59.23     0  01:32           0      0.0704      10.511
  YS02001759           JUNCTION    688.01   893.19     0  01:50        5.55        7.27       0.313
  YS02001887           JUNCTION    787.85   787.85     0  03:01        6.23        6.26       0.148
  YS02001890           JUNCTION      0.00   787.85     0  03:01           0        6.21       0.162
  YS02001898           JUNCTION      0.00   575.64     0  01:38           0        5.24       0.060
  YS02001901           JUNCTION      0.00   574.37     0  01:38           0        5.24       0.144
  YS02001904           JUNCTION      0.00   575.02     0  01:38           0        5.24       0.127
  YS02001907           JUNCTION      0.00  1384.49     0  03:01           0        13.2       0.194
  YS02001910           JUNCTION      0.00   868.06     0  03:01           0        7.96       0.165
  YS02001915           JUNCTION    536.93   868.03     0  03:01        4.53        8.02       0.080
  YS02001918           JUNCTION      0.00   350.63     0  01:39           0        3.52       0.049
  YS02001619           JUNCTION    541.58   541.58     0  03:01        4.58        4.58       0.266
  YS02001629           JUNCTION      0.00   364.97     0  01:31           0        1.87       1.519
  YS02001641           JUNCTION      0.00   450.65     0  01:32           0        5.95       0.352
  YS02001644           JUNCTION    611.54  1882.09     0  03:01         5.3        16.5       0.157
  YS02001652           JUNCTION      0.00   607.55     0  03:01           0        4.75       0.471
  YS02001655           JUNCTION      0.15   607.54     0  03:01     0.00434        4.77       0.534
  YS02001920           JUNCTION      2.87   349.43     0  01:40      0.0809         3.5       0.096
  YS02001923           JUNCTION      0.04   333.64     0  03:01     0.00106         3.4       0.037
  YS02001926           JUNCTION      0.05   330.60     0  03:01     0.00147        3.38       0.098
  YS02001929           JUNCTION    330.66   330.66     0  03:01        3.37        3.37       0.020
  YS02001658           JUNCTION      0.00   607.37     0  03:01           0        4.79       0.423
  YS02001661           JUNCTION      0.00   807.37     0  01:49           0        5.44      -0.054
  YS02001664           JUNCTION    606.27   606.27     0  03:01        4.78        5.44       0.060
  YS02001622           JUNCTION      0.00   541.60     0  03:01           0        4.57       0.696
  YS02001633           JUNCTION    625.57   625.57     0  03:01        5.46        6.65       0.483
  YS02001649           JUNCTION      0.00  1219.66     0  03:01           0         8.9       0.411
  YS02001757           JUNCTION      0.00  2177.59     0  01:50           0        14.8       0.625
  YS02001895           JUNCTION      0.00   574.43     0  01:38           0        5.25       0.119
  YS02001625           JUNCTION      0.00   743.58     0  03:01           0        5.19       0.777
  YS02163301           JUNCTION      0.00   316.26     0  01:30           0        1.87       1.288
  YS02163601           JUNCTION      0.11   450.26     0  01:32      0.0031        5.95       0.504
  YS02164001           JUNCTION      0.00   450.51     0  01:32           0        5.94       0.334
  YS02001647           JUNCTION      0.00   846.70     0  03:05           0         7.1       0.399
  YSB1154              JUNCTION     54.28    54.28     0  01:34       0.243       0.243       0.595
  YSB6556              JUNCTION      0.00    54.36     0  01:35           0       0.244       0.519
  YSB1174              JUNCTION     46.17    46.17     0  01:30       0.181       0.181       0.711
  YSB1171              JUNCTION      0.00    98.47     0  01:34           0       0.431       1.495
  YS02006553           JUNCTION      0.00   699.73     0  03:50           0        7.73       0.208
  YS02006561           JUNCTION      0.00  1147.99     0  01:44           0        13.5       0.006
  YS02006556           JUNCTION      0.00   699.75     0  03:50           0        7.74       0.156
  YS02006558           JUNCTION    724.98  1149.04     0  01:44         5.8        13.5       0.042
  YS02001783           JUNCTION      0.00  1148.01     0  01:44           0        13.5       0.023
  YS02001784           JUNCTION      1.06  1149.32     0  01:44      0.0299        13.5       0.033
  YS02001786           JUNCTION      0.06  1149.07     0  01:44     0.00159        13.5       0.032
  YS02001788           JUNCTION      0.07  1149.14     0  01:44       0.002        13.5       0.017
  YS02001790           JUNCTION      0.15  1159.16     0  01:44     0.00437        13.5       0.026
  YS02001791           JUNCTION      0.00  1275.46     0  01:42           0        13.5       0.007
  YS02001793           JUNCTION      0.00  1227.02     0  01:40           0        13.5       0.003
  WS02004139           JUNCTION      0.32   290.33     0  00:00     0.00905        8.04       0.491
  WSC                  OUTFALL       0.00  1219.30     0  01:45           0        20.3       0.000
  3                    OUTFALL       0.00   667.73     0  01:34           0        10.7       0.000
  4                    OUTFALL       0.00   467.61     0  01:35           0        3.77       0.000
  5                    OUTFALL       0.00     0.00     0  00:00           0           0       0.000 ltr
  JK-storage           STORAGE       0.00  1227.05     0  01:40           0        13.6     -12.678
  CC-storage           STORAGE       0.00  2177.94     0  01:50           0        12.3       0.314
  XR-storage           STORAGE    1408.02  1408.02     0  03:01        16.7        17.3      -0.002
  
  
  **********************
  Node Surcharge Summary
  **********************
  
  Surcharging occurs when water rises above the top of the highest conduit.
  ---------------------------------------------------------------------
                                               Max. Height   Min. Depth
                                   Hours       Above Crown    Below Rim
  Node                 Type      Surcharged         Meters       Meters
  ---------------------------------------------------------------------
  WS02004401           JUNCTION        1.66          0.505        1.155
  WS02004402           JUNCTION        1.68          0.275        1.465
  WS02004403           JUNCTION        1.68          0.400        1.630
  WS02004404           JUNCTION        1.80          0.306        2.474
  WS02004406           JUNCTION        1.75          0.470        1.980
  WS02004413           JUNCTION        0.23          0.020        2.180
  WS02004405           JUNCTION        1.77          0.323        2.477
  WS02006109           JUNCTION        6.39          0.806        1.014
  WS02006110           JUNCTION        1.97          0.517        1.333
  WS02006111           JUNCTION        0.15          0.065        1.805
  WS02006112           JUNCTION        2.11          0.808        0.872
  WS02006113           JUNCTION        0.19          0.105        1.825
  WS02006115           JUNCTION        0.83          0.937        1.313
  WS02006116           JUNCTION        0.91          0.750        1.540
  WS02006230           JUNCTION        1.79          0.734        0.836
  WS02006231           JUNCTION        1.86          0.828        0.702
  WS02006232           JUNCTION        6.35          1.154        0.326
  WS02006234           JUNCTION        2.28          1.240        0.000
  WS02006235           JUNCTION        6.34          1.290        0.000
  WS02006238           JUNCTION        6.34          1.388        0.042
  WS02006240           JUNCTION        2.64          1.340        0.050
  WS02006242           JUNCTION        6.34          0.820        0.000
  WS02006243           JUNCTION        1.90          0.770        0.000
  WS02006245           JUNCTION        1.74          0.850        0.000
  WS02006247           JUNCTION        1.75          0.760        0.000
  WS02006248           JUNCTION        0.41          0.380        0.000
  WS02006249           JUNCTION        0.23          0.290        0.000
  WS02006239           JUNCTION        5.02          1.290        0.000
  WS02006251           JUNCTION        0.13          0.218        0.962
  WS02006252           JUNCTION        6.39          0.402        0.698
  WS02006253           JUNCTION        0.16          0.249        2.231
  WS02006256           JUNCTION        0.31          1.050        0.000
  WS02006228           JUNCTION        6.39          0.959        1.241
  HS02004817           JUNCTION        0.32          0.040        1.700
  YS02001745           JUNCTION        0.34          0.827        0.523
  YS02001748           JUNCTION        6.11          1.190        0.000
  YS02001751           JUNCTION        6.30          1.200        0.000
  YS02001754           JUNCTION        6.31          1.150        0.000
  YS02001762           JUNCTION        6.34          1.083        0.067
  YS02001765           JUNCTION        6.33          1.025        0.075
  YS02001767           JUNCTION        6.33          0.972        0.058
  YS02001770           JUNCTION        6.33          0.920        0.000
  YS02001774           JUNCTION        6.34          1.033        0.017
  YS02001779           JUNCTION        6.31          0.680        0.000
  YS02001882           JUNCTION        2.57          0.641        0.189
  YS02001884           JUNCTION        2.60          0.681        0.189
  YS02001759           JUNCTION        6.34          1.124        0.086
  YS02001887           JUNCTION        2.67          0.771        0.179
  YS02001890           JUNCTION        2.70          0.760        0.000
  YS02001898           JUNCTION        2.53          0.534        0.206
  YS02001901           JUNCTION        2.64          0.678        0.192
  YS02001904           JUNCTION        2.62          0.640        0.210
  YS02001907           JUNCTION        3.02          0.950        0.000
  YS02001910           JUNCTION        2.74          0.823        0.277
  YS02001915           JUNCTION        2.56          0.675        0.325
  YS02001918           JUNCTION        2.33          0.425        0.385
  YS02001619           JUNCTION        6.31          0.610        0.000
  YS02001629           JUNCTION        6.31          0.470        0.000
  YS02001641           JUNCTION        6.33          0.948        0.152
  YS02001644           JUNCTION        6.34          0.920        0.000
  YS02001652           JUNCTION        6.31          1.130        0.000
  YS02001655           JUNCTION        6.30          1.200        0.000
  YS02001920           JUNCTION        2.37          0.530        0.610
  YS02001923           JUNCTION        0.01          0.105        0.715
  YS02001926           JUNCTION        0.01          0.129        0.771
  YS02001658           JUNCTION        6.14          1.300        0.000
  YS02001661           JUNCTION        0.97          1.390        0.000
  YS02001622           JUNCTION        6.31          0.620        0.000
  YS02001633           JUNCTION        6.33          0.948        0.112
  YS02001649           JUNCTION        6.34          1.050        0.000
  YS02001757           JUNCTION        6.36          1.210        0.000
  YS02001895           JUNCTION        2.54          0.567        0.183
  YS02001625           JUNCTION        6.32          0.780        0.000
  YS02163301           JUNCTION        6.33          0.914        0.116
  YS02163601           JUNCTION        6.34          1.016        0.064
  YS02164001           JUNCTION        6.33          0.946        0.154
  YS02001647           JUNCTION        6.32          0.830        0.070
  YS02006553           JUNCTION        3.07          1.126        0.064
  YS02006561           JUNCTION        2.42          0.886        0.264
  YS02006556           JUNCTION        2.90          1.263        0.087
  YS02006558           JUNCTION        2.87          1.331        0.069
  YS02001783           JUNCTION        2.93          1.371        0.229
  YS02001784           JUNCTION        2.95          1.337        0.153
  YS02001786           JUNCTION        2.87          1.124        0.306
  YS02001788           JUNCTION        2.73          0.906        0.574
  YS02001790           JUNCTION        2.93          0.879        0.278
  YS02001791           JUNCTION        2.97          0.761        1.159
  YS02001793           JUNCTION        3.08          0.804        1.796
  
  
  *********************
  Node Flooding Summary
  *********************
  
  Flooding refers to all water that overflows a node, whether it ponds or not.
  --------------------------------------------------------------------------
                                                             Total   Maximum
                                 Maximum   Time of Max       Flood    Ponded
                        Hours       Rate    Occurrence      Volume     Depth
  Node                 Flooded       LPS   days hr:min    10^6 ltr    Meters
  --------------------------------------------------------------------------
  WS02006234              0.01    151.23      0  01:29       0.000     0.000
  WS02006235              0.01     22.62      0  01:29       0.000     0.000
  WS02006242              0.01     89.66      0  01:29       0.000     0.000
  WS02006243              0.01    255.06      0  01:29       0.000     0.000
  WS02006245              0.01    113.56      0  01:29       0.000     0.000
  WS02006247              0.01    176.92      0  01:29       0.000     0.000
  WS02006248              0.01    255.15      0  01:29       0.000     0.000
  WS02006249              0.01      1.71      0  01:35       0.000     0.000
  WS02006239              0.01    193.92      0  01:29       0.000     0.000
  WS02006256              0.01    406.11      0  00:00       0.001     0.000
  YS02001748              0.01    250.60      0  01:32       0.000     0.000
  YS02001751              0.01      3.98      0  01:32       0.000     0.000
  YS02001754              0.01      3.98      0  01:32       0.000     0.000
  YS02001770              0.40    162.99      0  03:01       0.103     0.000
  YS02001779              3.77    851.17      0  03:08       5.093     0.000
  YS02001890              1.64    271.45      0  03:01       0.959     0.000
  YS02001907              2.18   1136.80      0  03:01       5.455     0.000
  YS02001619              0.01    124.07      0  01:31       0.000     0.000
  YS02001629              0.01    354.33      0  01:31       0.004     0.000
  YS02001644              4.95   1882.06      0  03:01      14.551     0.000
  YS02001652              0.01     21.34      0  01:33       0.000     0.000
  YS02001655              0.01     15.17      0  01:32       0.000     0.000
  YS02001658              0.01    267.02      0  01:32       0.000     0.000
  YS02001661              0.01    199.48      0  01:33       0.000     0.000
  YS02001622              0.01     80.75      0  01:31       0.000     0.000
  YS02001649              0.65    372.95      0  03:01       0.402     0.000
  YS02001757              0.01     33.07      0  01:33       0.000     0.000
  YS02001625              2.90    743.55      0  03:01       3.935     0.000
  JK-storage              2.72    402.22      0  01:45       3.231     0.000
  XR-storage              5.67   1122.95      0  03:01       8.364     0.000
  
  
  **********************
  Storage Volume Summary
  **********************
  
  --------------------------------------------------------------------------------------------------
                         Average     Avg  Evap Exfil       Maximum     Max    Time of Max    Maximum
                          Volume    Pcnt  Pcnt  Pcnt        Volume    Pcnt     Occurrence    Outflow
  Storage Unit           1000 m3    Full  Loss  Loss       1000 m3    Full    days hr:min        LPS
  --------------------------------------------------------------------------------------------------
  JK-storage               0.155      53     0     0         0.291     100       0  01:45     600.00
  CC-storage               3.359      21     0     0         3.995      25       0  03:04     400.00
  XR-storage               0.887      96     0     0         0.926     100       0  01:51     285.00
  
  
  ***********************
  Outfall Loading Summary
  ***********************
  
  -----------------------------------------------------------
                         Flow       Avg       Max       Total
                         Freq      Flow      Flow      Volume
  Outfall Node           Pcnt       LPS       LPS    10^6 ltr
  -----------------------------------------------------------
  WSC                  100.00    798.72   1219.30      20.341
  3                     97.38    462.79    667.73      10.699
  4                     95.44    160.95    467.61       3.766
  5                      0.00      0.00      0.00       0.000
  -----------------------------------------------------------
  System                73.20   1422.45   2291.21      34.805
  
  
  ********************
  Link Flow Summary
  ********************
  
  -----------------------------------------------------------------------------
                                 Maximum  Time of Max   Maximum    Max/    Max/
                                  |Flow|   Occurrence   |Veloc|    Full    Full
  Link                 Type          LPS  days hr:min     m/sec    Flow   Depth
  -----------------------------------------------------------------------------
  WS02003066WSF200     CONDUIT    929.82     0  01:39      3.07    0.16    0.32
  WS02006287WS02006284 CONDUIT    821.10     0  01:36      2.53    0.38    0.43
  WS02006284WS02006280 CONDUIT    821.20     0  01:36      2.76    0.34    0.40
  WS02006280WS02006229 CONDUIT    821.91     0  01:37      4.24    0.18    0.52
  WS02006229WS02006228 CONDUIT    899.70     0  01:37      1.79    2.98    1.00
  WS02006256WS02006235 CONDUIT    177.52     0  00:01      2.73    1.88    1.00
  WS02006253WS02006251 CONDUIT    180.51     0  01:36      0.69    0.54    1.00
  WS02006252WS02006251 CONDUIT    400.87     0  01:35      3.19    1.47    1.00
  WS02006251WS02006249 CONDUIT    583.76     0  01:36      1.52    1.68    1.00
  WS02006249WS02006248 CONDUIT    429.10     0  01:28      1.33    2.35    1.00
  WS02006248WS02006247 CONDUIT    421.56     0  01:29      1.33    0.92    1.00
  WS02006247WS02006245 CONDUIT    409.66     0  01:29      1.27    3.25    1.00
  WS02006245WS02006243 CONDUIT    389.94     0  01:29      1.36    1.15    1.00
  WS02006243WS02006242 CONDUIT    329.37     0  01:29      1.02    0.70    1.00
  WS02006242WS02006240 CONDUIT    308.20     0  07:50      0.80    1.22    1.00
  WS02006240WS02006239 CONDUIT    308.25     0  07:50      0.80    0.97    1.00
  WS02006239WS02006238 CONDUIT    308.26     0  07:49      0.80    0.99    1.00
  WS02006238WS02006235 CONDUIT    308.26     0  07:49      1.32    0.69    1.00
  WS02006235WS02006234 CONDUIT    392.79     0  05:39      1.02    4.14    1.00
  WS02006234WS02006232 CONDUIT    392.80     0  05:39      1.17    0.79    1.00
  WS02006232WS02006231 CONDUIT    392.80     0  05:40      1.06    0.82    1.00
  WS02006231WS02006230 CONDUIT    392.81     0  05:39      1.25    5.96    1.00
  WS02006230WS02006229 CONDUIT    403.12     0  05:38      1.05    8.97    1.00
  WS02006228WS02006109 CONDUIT    899.63     0  01:37      1.79    3.93    1.00
  WS02006116WS02004401 CONDUIT    932.52     0  01:37      1.19    1.29    1.00
  WS02006115WS02006116 CONDUIT    932.83     0  01:37      1.19    1.20    1.00
  WS02006113WS02006111 CONDUIT    900.88     0  01:37      2.72    1.08    1.00
  WS02006112WS02006115 CONDUIT    932.53     0  01:37      1.19    0.55    1.00
  WS02006111WS02006112 CONDUIT    900.99     0  01:37      2.02    0.43    1.00
  WS02006110WS02006113 CONDUIT    900.77     0  01:37      1.92    0.82    1.00
  WS02006109WS02006110 CONDUIT    901.14     0  01:37      1.79    1.73    1.00
  WS02004411WS02004412 CONDUIT    929.45     0  01:39      1.24    1.32    0.91
  WS02004401WS02004402 CONDUIT    933.08     0  01:37      1.19    1.12    1.00
  WS02004413WS02003067 CONDUIT    929.95     0  01:39      1.54    0.40    0.72
  WS02004412WS02004413 CONDUIT    929.94     0  01:39      1.21    0.62    0.95
  WS02004410WS02004411 CONDUIT    930.14     0  01:39      1.30    1.27    0.93
  WS02004409WS02004410 CONDUIT    930.09     0  01:39      1.39    1.20    0.95
  WS02004407WS02004409 CONDUIT    932.39     0  01:38      1.92    0.33    0.67
  WS02004406WS02004407 CONDUIT    932.87     0  01:37      1.59    0.42    0.70
  WS02004405WS02004406 CONDUIT    932.82     0  01:37      1.19    1.84    1.00
  WS02004404WS02004405 CONDUIT    933.85     0  01:37      1.19    9.15    1.00
  WS02004403WS02004404 CONDUIT    933.52     0  01:37      1.19    0.67    1.00
  WS02004402WS02004403 CONDUIT    933.02     0  01:37      1.19    1.34    1.00
  WS02004139WS02001211 CONDUIT    288.06     0  03:14      0.80    0.36    0.58
  WS02004138WS02004139 CONDUIT    290.01     0  00:00      3.34    0.06    0.42
  WS02003067WS02003066 CONDUIT    929.96     0  01:39      1.64    0.30    0.50
  WS02001213WS02003059 CONDUIT    304.38     0  03:14      0.80    0.50    0.82
  WS02001212WS02001213 CONDUIT    300.98     0  03:15      1.19    0.46    0.50
  WS02001211WS02001212 CONDUIT    298.42     0  03:15      0.67    0.23    0.65
  WS02003072WS02003073 CONDUIT   1217.05     0  01:45      1.90    2.63    0.55
  WS02003069WS02003072 CONDUIT   1216.81     0  01:45      1.77    0.59    0.59
  WS02003060WS02003069 CONDUIT   1216.66     0  01:44      1.98    0.48    0.53
  WS02003059WS02003060 CONDUIT    308.73     0  03:14      0.82    0.20    0.73
  HS02004901HS02004770 CONDUIT     40.98     0  01:33      0.10    0.15    0.57
  HS02004876HS02004881 CONDUIT    157.89     0  01:36      1.33    1.68    0.17
  HS02004870HS02004876 CONDUIT    127.62     0  01:36      0.90    0.08    0.20
  HS02004842HS02004848 CONDUIT     18.52     0  01:51      0.08    0.01    0.35
  HS02004837HS02004842 CONDUIT     18.98     0  01:52      0.41    0.01    0.36
  HS02004830HS02004837 CONDUIT     74.30     0  01:37      0.68    0.07    0.16
  HS02004824HS02004830 CONDUIT     74.99     0  01:38      0.62    0.10    0.21
  HS02004817HS02004824 CONDUIT    149.17     0  01:41      0.35    0.07    0.62
  HS02004770HS02004777 CONDUIT    211.13     0  01:32      0.52    0.39    0.58
  HS02004799HS02004480 CONDUIT    525.37     0  01:34      1.14    0.66    0.66
  HS02004792HS02004799 CONDUIT    478.53     0  01:33      1.27    0.29    0.54
  HS02004788HS02004792 CONDUIT    277.00     0  01:34      1.34    0.18    0.30
  HS02004785HS02004788 CONDUIT    210.87     0  01:34      0.96    1.59    0.31
  HS02004777HS02004785 CONDUIT    210.79     0  01:33      0.62    0.26    0.49
  HS02004480HS02004478 CONDUIT    623.55     0  01:34      1.66    2.63    0.54
  HS02004479HS02004480 CONDUIT     98.64     0  01:35      0.34    0.10    0.63
  HS02004862HS02004870 CONDUIT     96.84     0  01:37      0.86    0.10    0.16
  HS02004848HS02004852 CONDUIT     45.40     0  01:37      0.56    0.05    0.12
  HS02004856HS02004862 CONDUIT     68.36     0  01:37      0.64    0.07    0.15
  HS02004852HS02004856 CONDUIT     45.49     0  01:38      0.37    0.05    0.18
  HS02004802HS02004478 CONDUIT    205.92     0  01:39      0.56    0.18    0.54
  HS02004478WS02006287 CONDUIT    821.03     0  01:36      2.26    0.23    0.40
  HS02004817HS02004807 CONDUIT    149.96     0  01:41      0.27    0.09    0.79
  HS02004807HS02004802 CONDUIT    204.76     0  01:39      0.50    0.39    0.59
  YS02001759YS02001757 CONDUIT    893.08     0  01:50      1.14    0.63    1.00
  YS02001762YS02001759 CONDUIT    363.46     0  01:46      0.46    0.42    1.00
  YS02001765YS02001762 CONDUIT    363.53     0  01:46      0.46    0.34    1.00
  YS02001770YS02001767 CONDUIT    364.42     0  01:46      0.49    1.44    1.00
  YS02001774YS02001770 CONDUIT    851.17     0  03:08      1.08    0.54    1.00
  YS02001779YS02001774 CONDUIT    851.17     0  03:08      1.08    0.43    1.00
  YS02001649YS02001757 CONDUIT    890.83     0  01:48      1.13    0.54    1.00
  YS02001767YS02001765 CONDUIT    364.40     0  01:46      0.46    0.46    1.00
  YS02006561YS02001783 CONDUIT   1148.01     0  01:44      2.28    0.59    1.00
  YS02001783YS02001784 CONDUIT   1148.26     0  01:44      2.28    1.58    1.00
  YS02001784YS02001785 CONDUIT   1149.01     0  01:44      2.29    2.67    1.00
  YS02001788YS02001790 CONDUIT   1159.00     0  01:44      2.70    0.85    1.00
  YS02001790YS02001791 CONDUIT   1275.46     0  01:42      3.42    1.39    1.00
  YS02001791YS02001793 CONDUIT   1227.02     0  01:40      6.71    0.53    1.00
  YS02001910YS02001907 CONDUIT    868.10     0  03:01      1.11    0.49    1.00
  YS02001786YS02001788 CONDUIT   1149.07     0  01:44      2.46    2.21    1.00
  YS02001915YS02001910 CONDUIT    868.06     0  03:01      1.11    0.43    1.00
  YS02001918YS02001915 CONDUIT    351.98     0  01:40      0.56    0.19    1.00
  YS02001923YS02001920 CONDUIT    346.56     0  01:40      0.89    0.16    1.00
  YS02001926YS02001923 CONDUIT    333.60     0  03:01      0.95    0.48    1.00
  YS02001929YS02001926 CONDUIT    330.55     0  03:01      1.03    0.16    0.95
  YS02001920YS02001918 CONDUIT    350.63     0  01:39      0.85    0.34    1.00
  YS02001629YS02163301 CONDUIT    300.08     0  01:30      0.38    0.37    1.00
  YS02001619YS02001622 CONDUIT    541.60     0  03:01      0.90    0.80    1.00
  YS02001622YS02001625 CONDUIT    541.66     0  03:01      0.69    0.29    1.00
  YS02001625YS02001629 CONDUIT    308.41     0  01:30      0.45    0.15    1.00
  YS02163301YS02001633 CONDUIT    316.26     0  01:30      0.40    0.30    1.00
  YS02163601YS02164001 CONDUIT    450.51     0  01:32      0.57    0.40    1.00
  YS02164001YS02001641 CONDUIT    450.65     0  01:32      0.57    0.62    1.00
  YS02001641YS02001644 CONDUIT    451.07     0  01:32      0.57    1.46    1.00
  YS02001647YS02001649 CONDUIT    846.70     0  03:05      1.08    0.45    1.00
  YS02006553YS02006556 CONDUIT    699.75     0  03:50      0.89    0.60    1.00
  YS02006556YS02006558 CONDUIT    699.80     0  03:50      0.89    0.55    1.00
  YSB6556YSB1171       CONDUIT     54.78     0  01:36      0.16    0.06    0.86
  YS02001907YS02006553 CONDUIT    699.73     0  03:50      0.78    0.82    1.00
  YS02006558YS02006561 CONDUIT   1147.99     0  01:44      4.06    2.54    1.00
  YS02001633YS02163601 CONDUIT    450.15     0  01:32      0.57    0.47    1.00
  YS02001644YS02001647 CONDUIT    846.70     0  03:05      1.08    0.50    1.00
  YS02001745YS02001748 CONDUIT    636.27     0  03:01      1.91    0.24    1.00
  YS02001748YS02001751 CONDUIT    636.35     0  03:01      1.45    0.32    1.00
  YS02001751YS02001754 CONDUIT    636.41     0  03:01      1.17    0.31    1.00
  YS02001754YS02001757 CONDUIT    636.72     0  03:01      0.81    0.26    1.00
  YS02001882YS02001884 CONDUIT     48.10     0  01:34      0.18    0.06    1.00
  YS02001884YS02001887 CONDUIT     59.23     0  01:32      0.14    0.08    1.00
  YS02001890YS02001895 CONDUIT    574.43     0  01:38      0.73    0.27    1.00
  YS02001895YS02001898 CONDUIT    575.64     0  01:38      0.73    1.00    1.00
  YS02001898YS02001901 CONDUIT    574.37     0  01:38      0.73    0.37    1.00
  YS02001901YS02001904 CONDUIT    575.02     0  01:38      0.73    0.89    1.00
  YS02001904YS02001907 CONDUIT    573.33     0  01:38      0.73    0.20    1.00
  YS02001887YS02001890 CONDUIT    787.85     0  03:01      1.00    1.35    1.00
  YS02001652YS02001649 CONDUIT    607.55     0  03:01      0.77    0.30    1.00
  YS02001655YS02001652 CONDUIT    607.55     0  03:01      1.26    0.30    1.00
  YS02001658YS02001655 CONDUIT    607.38     0  03:01      1.67    0.26    1.00
  YS02001661YS02001658 CONDUIT    607.37     0  03:01      2.02    0.24    1.00
  YS02001664YS02001661 CONDUIT    807.37     0  01:49      1.90    0.25    0.88
  YSB1154YSB6556       CONDUIT     54.36     0  01:35      0.17    0.10    0.79
  YSB1174YSB1171       CONDUIT     45.33     0  01:31      0.13    0.07    0.90
  YSB1171HS02004479    CONDUIT     98.35     0  01:34      0.54    0.07    0.73
  HS02004881HS02006253 CONDUIT    174.52     0  01:36      2.50    0.03    0.54
  YS02001793JiankangQianchi CONDUIT   1227.05     0  01:40     16.33    0.10    1.00
  YS02001757CaochengTiaoxuchi CONDUIT   2177.94     0  01:50      3.85    0.96    1.00
  WSF200WS02003060     CONDUIT    928.64     0  01:39      2.10    0.21    0.43
  1                    CONDUIT   1219.30     0  01:45      3.51    0.42    0.46
  2                    CONDUIT    467.61     0  01:35      6.74    1.12    1.00
  3                    CONDUIT    667.73     0  01:34     10.12    1.06    1.00
  4                    CONDUIT      0.00     0  00:00      0.00    0.00    0.00
  CC-Pump-1            PUMP       200.00     0  01:27              1.00
  CC-Pump-2            PUMP       200.00     0  01:27              1.00
  JK-Pump-1            PUMP       300.00     0  00:00              1.00
  JK-Pump-2            PUMP       300.00     0  00:00              1.00
  XR-Pump-1            PUMP        95.00     0  00:00              1.00
  XR-Pump-2            PUMP        95.00     0  00:00              1.00
  XR-Pump-3            PUMP         0.00     0  00:00              0.00
  XR-Pump-4            PUMP        95.00     0  00:00              1.00
  
  
  ***************************
  Flow Classification Summary
  ***************************
  
  -------------------------------------------------------------------------------------
                      Adjusted    ---------- Fraction of Time in Flow Class ---------- 
                       /Actual         Up    Down  Sub   Sup   Up    Down  Norm  Inlet 
  Conduit               Length    Dry  Dry   Dry   Crit  Crit  Crit  Crit  Ltd   Ctrl  
  -------------------------------------------------------------------------------------
  WS02003066WSF200        1.00   0.06  0.00  0.00  0.00  0.94  0.00  0.00  0.53  0.00
  WS02006287WS02006284    1.00   0.03  0.01  0.00  0.55  0.42  0.00  0.00  0.61  0.00
  WS02006284WS02006280    1.00   0.03  0.00  0.00  0.00  0.00  0.00  0.97  0.00  0.00
  WS02006280WS02006229    1.00   0.03  0.00  0.00  0.00  0.05  0.00  0.92  0.01  0.00
  WS02006229WS02006228    1.00   0.00  0.00  0.00  0.99  0.00  0.00  0.01  0.00  0.00
  WS02006256WS02006235    1.00   0.00  0.00  0.00  1.00  0.00  0.00  0.00  0.00  0.00
  WS02006253WS02006251    1.00   0.02  0.01  0.00  0.97  0.00  0.00  0.00  0.00  0.00
  WS02006252WS02006251    1.00   0.04  0.00  0.00  0.01  0.00  0.95  0.00  0.00  0.00
  WS02006251WS02006249    1.00   0.00  0.00  0.00  1.00  0.00  0.00  0.00  0.14  0.00
  WS02006249WS02006248    1.00   0.00  0.01  0.00  0.96  0.00  0.02  0.00  0.00  0.00
  WS02006248WS02006247    1.00   0.01  0.00  0.00  0.98  0.00  0.00  0.01  0.02  0.00
  WS02006247WS02006245    1.00   0.01  0.00  0.00  0.97  0.00  0.00  0.02  0.00  0.00
  WS02006245WS02006243    1.00   0.01  0.00  0.00  0.96  0.00  0.00  0.02  0.01  0.00
  WS02006243WS02006242    1.00   0.01  0.00  0.00  0.99  0.00  0.00  0.00  0.15  0.00
  WS02006242WS02006240    1.00   0.00  0.00  0.00  0.99  0.00  0.00  0.00  0.00  0.00
  WS02006240WS02006239    1.00   0.00  0.00  0.00  0.98  0.00  0.00  0.02  0.01  0.00
  WS02006239WS02006238    1.00   0.00  0.00  0.00  1.00  0.00  0.00  0.00  0.00  0.00
  WS02006238WS02006235    1.00   0.00  0.00  0.00  1.00  0.00  0.00  0.00  0.00  0.00
  WS02006235WS02006234    1.00   0.00  0.00  0.00  0.98  0.00  0.02  0.00  0.00  0.00
  WS02006234WS02006232    1.00   0.00  0.00  0.00  1.00  0.00  0.00  0.00  0.00  0.00
  WS02006232WS02006231    1.00   0.00  0.00  0.00  0.99  0.00  0.00  0.00  0.00  0.00
  WS02006231WS02006230    1.00   0.00  0.00  0.00  0.96  0.00  0.03  0.00  0.00  0.00
  WS02006230WS02006229    1.00   0.00  0.00  0.00  0.99  0.00  0.00  0.01  0.01  0.00
  WS02006228WS02006109    1.00   0.00  0.00  0.00  1.00  0.00  0.00  0.00  0.00  0.00
  WS02006116WS02004401    1.00   0.02  0.00  0.00  0.98  0.00  0.00  0.00  0.00  0.00
  WS02006115WS02006116    1.00   0.02  0.00  0.00  0.97  0.00  0.00  0.01  0.01  0.00
  WS02006113WS02006111    1.00   0.01  0.00  0.00  0.13  0.86  0.00  0.00  0.06  0.00
  WS02006112WS02006115    1.00   0.01  0.00  0.00  0.98  0.00  0.00  0.00  0.00  0.00
  WS02006111WS02006112    1.00   0.01  0.00  0.00  0.98  0.00  0.00  0.00  0.75  0.00
  WS02006110WS02006113    1.00   0.01  0.00  0.00  0.99  0.00  0.00  0.00  0.00  0.00
  WS02006109WS02006110    1.00   0.00  0.01  0.00  0.99  0.00  0.00  0.00  0.00  0.00
  WS02004411WS02004412    1.00   0.04  0.00  0.00  0.96  0.00  0.00  0.00  0.00  0.00
  WS02004401WS02004402    1.00   0.02  0.00  0.00  0.98  0.00  0.00  0.00  0.00  0.00
  WS02004413WS02003067    1.00   0.04  0.01  0.00  0.00  0.00  0.95  0.00  0.00  0.00
  WS02004412WS02004413    1.00   0.04  0.00  0.00  0.96  0.00  0.00  0.00  0.00  0.00
  WS02004410WS02004411    1.00   0.04  0.00  0.00  0.96  0.00  0.00  0.00  0.00  0.00
  WS02004409WS02004410    1.00   0.04  0.00  0.00  0.96  0.00  0.00  0.00  0.00  0.00
  WS02004407WS02004409    1.00   0.04  0.00  0.00  0.95  0.02  0.00  0.00  0.80  0.00
  WS02004406WS02004407    1.00   0.00  0.04  0.00  0.96  0.00  0.00  0.00  0.00  0.00
  WS02004405WS02004406    1.00   0.00  0.00  0.00  1.00  0.00  0.00  0.00  0.02  0.00
  WS02004404WS02004405    1.00   0.00  0.00  0.00  1.00  0.00  0.00  0.00  0.00  0.00
  WS02004403WS02004404    1.00   0.00  0.02  0.00  0.98  0.00  0.00  0.00  0.02  0.00
  WS02004402WS02004403    1.00   0.02  0.00  0.00  0.98  0.00  0.00  0.00  0.00  0.00
  WS02004139WS02001211    1.00   0.00  0.00  0.00  1.00  0.00  0.00  0.00  0.00  0.00
  WS02004138WS02004139    1.00   0.00  0.00  0.00  0.99  0.01  0.00  0.00  1.00  0.00
  WS02003067WS02003066    1.00   0.05  0.00  0.00  0.94  0.00  0.00  0.00  0.00  0.00
  WS02001213WS02003059    1.00   0.00  0.00  0.00  0.99  0.00  0.00  0.00  0.00  0.00
  WS02001212WS02001213    1.00   0.00  0.00  0.00  0.94  0.00  0.06  0.00  0.00  0.00
  WS02001211WS02001212    1.00   0.00  0.00  0.00  1.00  0.00  0.00  0.00  0.00  0.00
  WS02003072WS02003073    1.00   0.00  0.00  0.00  0.00  0.00  0.00  1.00  0.00  0.00
  WS02003069WS02003072    1.00   0.00  0.00  0.00  0.99  0.01  0.00  0.00  0.17  0.00
  WS02003060WS02003069    1.00   0.00  0.00  0.00  0.99  0.01  0.00  0.00  0.00  0.00
  WS02003059WS02003060    1.00   0.00  0.00  0.00  1.00  0.00  0.00  0.00  0.01  0.00
  HS02004901HS02004770    1.00   0.03  0.00  0.00  0.97  0.00  0.00  0.00  0.00  0.00
  HS02004876HS02004881    1.00   0.01  0.00  0.00  0.72  0.27  0.00  0.00  0.00  0.00
  HS02004870HS02004876    1.00   0.01  0.00  0.00  0.99  0.00  0.00  0.00  0.95  0.00
  HS02004842HS02004848    1.00   0.00  0.03  0.00  0.97  0.00  0.00  0.00  0.54  0.00
  HS02004837HS02004842    1.00   0.00  0.00  0.00  0.99  0.01  0.00  0.00  0.11  0.00
  HS02004830HS02004837    1.00   0.00  0.00  0.00  1.00  0.00  0.00  0.00  0.99  0.00
  HS02004824HS02004830    1.00   0.00  0.00  0.00  1.00  0.00  0.00  0.00  0.03  0.00
  HS02004817HS02004824    1.00   0.00  0.00  0.00  1.00  0.00  0.00  0.00  0.88  0.00
  HS02004770HS02004777    1.00   0.00  0.03  0.00  0.97  0.00  0.00  0.00  0.02  0.00
  HS02004799HS02004480    1.00   0.00  0.01  0.00  0.97  0.00  0.02  0.00  0.00  0.00
  HS02004792HS02004799    1.00   0.00  0.00  0.00  0.99  0.01  0.00  0.00  0.98  0.00
  HS02004788HS02004792    1.00   0.00  0.00  0.00  0.99  0.01  0.00  0.00  0.98  0.00
  HS02004785HS02004788    1.00   0.00  0.00  0.00  1.00  0.00  0.00  0.00  0.00  0.00
  HS02004777HS02004785    1.00   0.00  0.00  0.00  1.00  0.00  0.00  0.00  0.11  0.00
  HS02004480HS02004478    1.00   0.03  0.00  0.00  0.61  0.00  0.00  0.36  0.00  0.00
  HS02004479HS02004480    1.00   0.02  0.00  0.00  0.98  0.00  0.00  0.00  0.11  0.00
  HS02004862HS02004870    1.00   0.00  0.00  0.00  1.00  0.00  0.00  0.00  0.02  0.00
  HS02004848HS02004852    1.00   0.03  0.00  0.00  0.97  0.00  0.00  0.00  0.81  0.00
  HS02004856HS02004862    1.00   0.00  0.03  0.00  0.97  0.00  0.00  0.00  0.84  0.00
  HS02004852HS02004856    1.00   0.03  0.00  0.00  0.97  0.00  0.00  0.00  0.70  0.00
  HS02004802HS02004478    1.00   0.03  0.00  0.00  0.97  0.00  0.00  0.00  0.02  0.00
  HS02004478WS02006287    1.00   0.03  0.00  0.00  0.66  0.30  0.00  0.00  0.58  0.00
  HS02004817HS02004807    1.00   0.00  0.03  0.00  0.97  0.00  0.00  0.00  0.01  0.00
  HS02004807HS02004802    1.00   0.03  0.00  0.00  0.97  0.00  0.00  0.00  0.00  0.00
  YS02001759YS02001757    1.00   0.00  0.00  0.00  1.00  0.00  0.00  0.00  0.15  0.00
  YS02001762YS02001759    1.00   0.00  0.00  0.00  1.00  0.00  0.00  0.00  0.02  0.00
  YS02001765YS02001762    1.00   0.00  0.00  0.00  1.00  0.00  0.00  0.00  0.13  0.00
  YS02001770YS02001767    1.00   0.00  0.00  0.00  1.00  0.00  0.00  0.00  0.00  0.00
  YS02001774YS02001770    1.00   0.00  0.03  0.00  0.97  0.00  0.00  0.00  0.02  0.00
  YS02001779YS02001774    1.00   0.00  0.00  0.00  1.00  0.00  0.00  0.00  0.16  0.00
  YS02001649YS02001757    1.00   0.00  0.00  0.00  1.00  0.00  0.00  0.00  0.15  0.00
  YS02001767YS02001765    1.00   0.00  0.00  0.00  1.00  0.00  0.00  0.00  0.00  0.00
  YS02006561YS02001783    1.00   0.03  0.00  0.00  0.49  0.48  0.00  0.00  0.35  0.00
  YS02001783YS02001784    1.00   0.00  0.03  0.00  0.97  0.00  0.00  0.00  0.00  0.00
  YS02001784YS02001785    1.00   0.00  0.00  0.00  1.00  0.00  0.00  0.00  0.16  0.00
  YS02001788YS02001790    1.00   0.00  0.00  0.00  0.52  0.48  0.00  0.00  0.34  0.00
  YS02001790YS02001791    1.00   0.00  0.00  0.00  0.50  0.50  0.00  0.00  0.40  0.00
  YS02001791YS02001793    1.00   0.00  0.00  0.00  0.50  0.50  0.00  0.00  0.01  0.00
  YS02001910YS02001907    1.00   0.00  0.00  0.00  0.98  0.00  0.00  0.01  0.12  0.00
  YS02001786YS02001788    1.00   0.00  0.00  0.00  0.52  0.48  0.00  0.00  0.00  0.00
  YS02001915YS02001910    1.00   0.00  0.00  0.00  1.00  0.00  0.00  0.00  0.13  0.00
  YS02001918YS02001915    1.00   0.00  0.01  0.00  0.99  0.00  0.00  0.00  0.45  0.00
  YS02001923YS02001920    1.00   0.00  0.00  0.00  1.00  0.00  0.00  0.00  0.64  0.00
  YS02001926YS02001923    1.00   0.00  0.02  0.00  0.39  0.00  0.58  0.00  0.00  0.00
  YS02001929YS02001926    1.00   0.00  0.03  0.00  0.97  0.00  0.00  0.00  0.56  0.00
  YS02001920YS02001918    1.00   0.00  0.01  0.00  0.99  0.00  0.00  0.00  0.00  0.00
  YS02001629YS02163301    1.00   0.03  0.00  0.00  0.97  0.00  0.00  0.00  0.00  0.00
  YS02001619YS02001622    1.00   0.03  0.00  0.00  0.97  0.00  0.00  0.00  0.00  0.00
  YS02001622YS02001625    1.00   0.03  0.00  0.00  0.97  0.00  0.00  0.00  0.03  0.00
  YS02001625YS02001629    1.00   0.03  0.01  0.00  0.96  0.00  0.01  0.00  0.00  0.00
  YS02163301YS02001633    1.00   0.00  0.03  0.00  0.97  0.00  0.00  0.00  0.00  0.00
  YS02163601YS02164001    1.00   0.00  0.02  0.00  0.98  0.00  0.00  0.00  0.00  0.00
  YS02164001YS02001641    1.00   0.01  0.01  0.00  0.98  0.00  0.00  0.00  0.06  0.00
  YS02001641YS02001644    1.00   0.00  0.01  0.00  0.99  0.00  0.00  0.00  0.00  0.00
  YS02001647YS02001649    1.00   0.00  0.03  0.00  0.97  0.00  0.00  0.00  0.01  0.00
  YS02006553YS02006556    1.00   0.01  0.00  0.00  0.99  0.00  0.00  0.00  0.03  0.00
  YS02006556YS02006558    1.00   0.00  0.00  0.00  1.00  0.00  0.00  0.00  0.00  0.00
  YSB6556YSB1171          1.00   0.02  0.01  0.00  0.97  0.00  0.00  0.00  0.00  0.00
  YS02001907YS02006553    1.00   0.00  0.01  0.00  0.99  0.00  0.00  0.00  0.00  0.00
  YS02006558YS02006561    1.00   0.03  0.00  0.00  0.42  0.54  0.00  0.00  0.34  0.00
  YS02001633YS02163601    1.00   0.00  0.01  0.00  0.99  0.00  0.00  0.00  0.15  0.00
  YS02001644YS02001647    1.00   0.00  0.03  0.00  0.97  0.00  0.00  0.00  0.00  0.00
  YS02001745YS02001748    1.00   0.00  0.00  0.00  0.95  0.00  0.00  0.05  0.00  0.00
  YS02001748YS02001751    1.00   0.00  0.00  0.00  0.99  0.01  0.00  0.00  0.13  0.00
  YS02001751YS02001754    1.00   0.00  0.00  0.00  0.96  0.00  0.00  0.04  0.01  0.00
  YS02001754YS02001757    1.00   0.00  0.00  0.00  0.99  0.01  0.00  0.00  0.16  0.00
  YS02001882YS02001884    1.00   0.03  0.00  0.00  0.97  0.00  0.00  0.00  0.00  0.00
  YS02001884YS02001887    1.00   0.02  0.01  0.00  0.97  0.00  0.00  0.00  0.00  0.00
  YS02001890YS02001895    1.00   0.00  0.03  0.00  0.97  0.00  0.00  0.00  0.00  0.00
  YS02001895YS02001898    1.00   0.03  0.00  0.00  0.96  0.00  0.00  0.00  0.00  0.00
  YS02001898YS02001901    1.00   0.03  0.00  0.00  0.97  0.00  0.00  0.00  0.00  0.00
  YS02001901YS02001904    1.00   0.03  0.00  0.00  0.97  0.00  0.00  0.00  0.00  0.00
  YS02001904YS02001907    1.00   0.00  0.03  0.00  0.97  0.00  0.00  0.00  0.00  0.00
  YS02001887YS02001890    1.00   0.00  0.00  0.00  0.98  0.00  0.01  0.00  0.00  0.00
  YS02001652YS02001649    1.00   0.00  0.00  0.00  1.00  0.00  0.00  0.00  0.15  0.00
  YS02001655YS02001652    1.00   0.00  0.00  0.00  0.96  0.00  0.00  0.04  0.01  0.00
  YS02001658YS02001655    1.00   0.00  0.03  0.00  0.96  0.01  0.00  0.00  0.01  0.00
  YS02001661YS02001658    1.00   0.03  0.00  0.00  0.95  0.02  0.00  0.00  0.00  0.00
  YS02001664YS02001661    1.00   0.03  0.00  0.00  0.95  0.02  0.00  0.00  0.07  0.00
  YSB1154YSB6556          1.00   0.03  0.00  0.00  0.97  0.00  0.00  0.00  0.01  0.00
  YSB1174YSB1171          1.00   0.02  0.01  0.00  0.98  0.00  0.00  0.00  0.00  0.00
  YSB1171HS02004479       1.00   0.02  0.00  0.00  0.98  0.00  0.00  0.00  0.10  0.00
  HS02004881HS02006253    1.00   0.02  0.00  0.00  0.96  0.00  0.00  0.02  0.82  0.00
  YS02001793JiankangQianchi    1.00   0.00  0.00  0.00  0.58  0.42  0.00  0.00  0.07  0.00
  YS02001757CaochengTiaoxuchi    1.00   0.00  0.04  0.00  0.93  0.03  0.00  0.00  0.00  0.00
  WSF200WS02003060        1.00   0.00  0.06  0.00  0.89  0.05  0.00  0.00  0.00  0.00
  1                       1.00   0.00  0.00  0.00  0.00  1.00  0.00  0.00  0.19  0.00
  2                       1.00   0.05  0.00  0.00  0.01  0.94  0.00  0.00  0.01  0.00
  3                       1.00   0.03  0.00  0.00  0.01  0.96  0.00  0.00  0.01  0.00
  4                       1.00   1.00  0.00  0.00  0.00  0.00  0.00  0.00  0.00  0.00
  
  
  *************************
  Conduit Surcharge Summary
  *************************
  
  ----------------------------------------------------------------------------
                                                           Hours        Hours 
                         --------- Hours Full --------   Above Full   Capacity
  Conduit                Both Ends  Upstream  Dnstream   Normal Flow   Limited
  ----------------------------------------------------------------------------
  WS02006229WS02006228        6.39      6.39      6.39      6.43         6.39
  WS02006256WS02006235        6.44      6.44      7.83      1.43         0.01
  WS02006253WS02006251        1.69      1.69      1.82      0.01         0.01
  WS02006252WS02006251        6.38      6.38      6.39      6.38         0.01
  WS02006251WS02006249        0.61      1.72      0.61      6.38         0.61
  WS02006249WS02006248        0.40      0.41      0.61      5.92         0.01
  WS02006248WS02006247        0.66      0.66      1.75      0.01         0.01
  WS02006247WS02006245        1.74      1.80      1.74      6.29         1.58
  WS02006245WS02006243        1.77      1.77      1.90      0.02         0.01
  WS02006243WS02006242        1.99      1.99      6.34      0.01         0.01
  WS02006242WS02006240        2.64      2.64      6.35      4.58         0.01
  WS02006240WS02006239        4.56      4.56      5.01      0.01         0.01
  WS02006239WS02006238        6.34      6.34      6.34      0.01         0.01
  WS02006238WS02006235        6.34      6.34      6.34      0.01         0.02
  WS02006235WS02006234        2.28      2.28      6.34      6.21         0.11
  WS02006234WS02006232        4.44      4.44      6.35      0.01         0.01
  WS02006232WS02006231        1.86      1.86      6.35      0.01         0.01
  WS02006231WS02006230        1.79      1.79      1.89      6.37         0.09
  WS02006230WS02006229        6.40      6.40      6.40      6.53         6.30
  WS02006228WS02006109        6.39      6.40      6.39      6.45         6.39
  WS02006116WS02004401        1.65      1.65      1.66      1.14         1.11
  WS02006115WS02006116        0.89      0.89      0.91      0.73         0.71
  WS02006113WS02006111        0.17      0.19      0.17      0.33         0.17
  WS02006112WS02006115        0.83      0.83      2.11      0.01         0.01
  WS02006111WS02006112        0.15      0.15      6.37      0.01         0.01
  WS02006110WS02006113        0.19      0.19      6.39      0.01         0.01
  WS02006109WS02006110        1.97      1.97      6.39      1.97         0.01
  WS02004411WS02004412        0.01      0.01      0.01      1.38         0.01
  WS02004401WS02004402        1.66      1.66      1.68      0.37         0.33
  WS02004413WS02003067        0.01      0.01      0.23      0.01         0.01
  WS02004412WS02004413        0.01      0.01      0.23      0.01         0.01
  WS02004410WS02004411        0.01      0.01      0.01      1.07         0.01
  WS02004409WS02004410        0.01      0.01      0.01      0.76         0.01
  WS02004406WS02004407        0.01      0.01      1.75      0.01         0.01
  WS02004405WS02004406        1.75      1.77      1.75      2.02         1.75
  WS02004404WS02004405        1.77      1.80      1.77      6.42         1.77
  WS02004403WS02004404        1.68      1.68      1.80      0.01         0.01
  WS02004402WS02004403        1.68      1.68      1.68      1.55         1.54
  WS02003072WS02003073        0.01      0.01      0.01      6.25         0.01
  HS02004876HS02004881        0.01      0.01      0.01      0.86         0.01
  HS02004817HS02004824        0.01      0.01      0.32      0.01         0.01
  HS02004785HS02004788        0.01      0.01      0.01      0.81         0.01
  HS02004480HS02004478        0.01      0.01      0.01      1.81         0.01
  HS02004817HS02004807        0.01      0.01      0.32      0.01         0.01
  YS02001759YS02001757        6.34      6.34      6.36      0.01         0.01
  YS02001762YS02001759        6.34      6.34      6.34      0.01         0.01
  YS02001765YS02001762        6.33      6.33      6.34      0.01         0.01
  YS02001770YS02001767        6.33      6.33      6.33      0.65         0.75
  YS02001774YS02001770        6.33      6.33      6.34      0.01         0.01
  YS02001779YS02001774        6.31      6.31      6.34      0.01         0.01
  YS02001649YS02001757        6.34      6.34      6.36      0.01         0.01
  YS02001767YS02001765        6.33      6.33      6.33      0.01         0.01
  YS02006561YS02001783        2.42      2.42      2.93      0.01         0.01
  YS02001783YS02001784        2.92      2.93      2.95      2.80         2.73
  YS02001784YS02001785        2.87      2.95      2.87      3.51         2.87
  YS02001788YS02001790        2.73      2.73      2.93      0.01         0.01
  YS02001790YS02001791        2.93      2.93      2.97      2.33         2.16
  YS02001791YS02001793        2.97      2.97      3.12      0.01         0.01
  YS02001910YS02001907        2.74      2.74      3.02      0.01         0.01
  YS02001786YS02001788        2.73      2.87      2.73      3.23         2.73
  YS02001915YS02001910        2.56      2.56      2.74      0.01         0.01
  YS02001918YS02001915        2.33      2.33      2.56      0.01         0.01
  YS02001923YS02001920        2.16      2.16      2.37      0.01         0.01
  YS02001926YS02001923        0.01      0.01      0.01      0.01         0.01
  YS02001929YS02001926        0.01      0.01      0.01      0.01         0.01
  YS02001920YS02001918        2.33      2.33      2.37      0.01         0.01
  YS02001629YS02163301        6.33      6.33      6.33      0.01         0.01
  YS02001619YS02001622        6.31      6.31      6.31      0.01         0.02
  YS02001622YS02001625        6.31      6.31      6.32      0.01         0.01
  YS02001625YS02001629        6.31      6.31      6.32      0.01         0.01
  YS02163301YS02001633        6.33      6.33      6.33      0.01         0.01
  YS02163601YS02164001        6.33      6.33      6.34      0.01         0.01
  YS02164001YS02001641        6.33      6.33      6.33      0.01         0.02
  YS02001641YS02001644        6.33      6.33      6.34      3.05         3.15
  YS02001647YS02001649        6.32      6.32      6.34      0.01         0.01
  YS02006553YS02006556        2.90      2.90      3.07      0.01         0.01
  YS02006556YS02006558        2.96      2.96      3.12      0.01         0.01
  YSB6556YSB1171              0.01      0.01      0.43      0.01         0.01
  YS02001907YS02006553        3.54      3.54      3.72      0.01         0.01
  YS02006558YS02006561        2.60      2.87      2.60      3.40         2.60
  YS02001633YS02163601        6.33      6.33      6.34      0.01         0.01
  YS02001644YS02001647        6.32      6.32      6.34      0.01         0.01
  YS02001745YS02001748        0.34      0.34      6.11      0.01         0.01
  YS02001748YS02001751        6.29      6.29      6.30      0.01         0.01
  YS02001751YS02001754        6.30      6.30      6.31      0.01         0.01
  YS02001754YS02001757        6.31      6.31      6.36      0.01         0.01
  YS02001882YS02001884        2.57      2.57      2.60      0.01         0.01
  YS02001884YS02001887        2.65      2.65      2.67      0.01         0.01
  YS02001890YS02001895        2.54      2.54      2.75      0.01         0.01
  YS02001895YS02001898        2.53      2.53      2.54      0.01         0.01
  YS02001898YS02001901        2.55      2.55      2.64      0.01         0.01
  YS02001901YS02001904        2.62      2.62      2.64      0.01         0.01
  YS02001904YS02001907        2.62      2.62      3.10      0.01         0.01
  YS02001887YS02001890        2.70      2.70      2.72      1.55         0.01
  YS02001652YS02001649        6.32      6.32      6.34      0.01         0.01
  YS02001655YS02001652        6.30      6.30      6.31      0.01         0.01
  YS02001658YS02001655        6.14      6.14      6.30      0.01         0.01
  YS02001661YS02001658        0.95      0.95      6.14      0.01         0.01
  YS02001664YS02001661        0.01      0.01      2.33      0.01         0.01
  YSB1174YSB1171              0.01      0.01      0.16      0.01         0.01
  HS02004881HS02006253        0.01      0.01      0.16      0.01         0.01
  YS02001793JiankangQianchi        3.08      3.08      3.66      0.01         0.01
  YS02001757CaochengTiaoxuchi        5.79      5.79      6.36      0.01         0.01
  2                           0.23      0.23      0.28      0.28         0.23
  3                           0.24      0.31      0.34      0.34         0.24
  
  
  ***************
  Pumping Summary
  ***************
  
  ---------------------------------------------------------------------------------------------------------
                                                  Min       Avg       Max     Total     Power    % Time Off
                        Percent   Number of      Flow      Flow      Flow    Volume     Usage    Pump Curve
  Pump                 Utilized   Start-Ups       LPS       LPS       LPS  10^6 ltr     Kw-hr    Low   High
  ---------------------------------------------------------------------------------------------------------
  CC-Pump-1               81.84           1      0.00    199.40    200.00     4.601      7.42    0.0    4.4
  CC-Pump-2               81.84           1      0.00    199.40    200.00     4.601      7.42    0.0    4.4
  JK-Pump-1              100.00           1      0.00    260.82    300.00     6.188     65.81    0.0    0.0
  JK-Pump-2              100.00           1      0.00    260.82    300.00     6.188     65.81    0.0    0.0
  XR-Pump-1              100.00           1      0.00     95.00     95.00     2.679     19.70    0.0    0.0
  XR-Pump-2              100.00           1      0.00     95.00     95.00     2.679     19.70    0.0    0.0
  XR-Pump-3                0.00           0      0.00      0.00      0.00     0.000      0.00    0.0    0.0
  XR-Pump-4              100.00           1      0.00     95.00     95.00     2.679     19.70    0.0    0.0
  

  Analysis begun on:  Tue Jan  4 13:45:51 2022
  Analysis ended on:  Tue Jan  4 13:45:55 2022
  Total elapsed time: 00:00:04