
  EPA STORM WATER MANAGEMENT MODEL - VERSION 5.1 (Build 5.3.0.dev0)
  --------------------------------------------------------------

  WARNING 04: minimum elevation drop used for Conduit WS02004404WS02004405
  WARNING 03: negative offset ignored for Link YS02001904YS02001907
  
  *********************************************************
  NOTE: The summary statistics displayed in this report are
  based on results found at every computational time step,  
  not just on results from each reporting time step.
  *********************************************************
  
  ****************
  Analysis Options
  ****************
  Flow Units ............... LPS
  Process Models:
    Rainfall/Runoff ........ YES
    RDII ................... NO
    Snowmelt ............... NO
    Groundwater ............ NO
    Flow Routing ........... YES
    Ponding Allowed ........ NO
    Water Quality .......... NO
  Infiltration Method ...... HORTON
  Flow Routing Method ...... DYNWAVE
  Surcharge Method ......... EXTRAN
  Starting Date ............ 08/28/2015 08:00:00
  Ending Date .............. 08/28/2015 15:50:00
  Antecedent Dry Days ...... 8.0
  Report Time Step ......... 00:01:00
  Wet Time Step ............ 00:01:00
  Dry Time Step ............ 00:01:00
  Routing Time Step ........ 5.00 sec
  Variable Time Step ....... YES
  Maximum Trials ........... 8
  Number of Threads ........ 4
  Head Tolerance ........... 0.001500 m
  
  
  **************************        Volume         Depth
  Runoff Quantity Continuity     hectare-m            mm
  **************************     ---------       -------
  Total Precipitation ......         4.854        10.627
  Evaporation Loss .........         0.000         0.000
  Infiltration Loss ........         1.246         2.727
  Surface Runoff ...........         2.607         5.707
  Final Storage ............         1.002         2.194
  Continuity Error (%) .....        -0.015
  
  
  **************************        Volume        Volume
  Flow Routing Continuity        hectare-m      10^6 ltr
  **************************     ---------     ---------
  Dry Weather Inflow .......         0.616         6.165
  Wet Weather Inflow .......         2.606        26.058
  Groundwater Inflow .......         0.000         0.000
  RDII Inflow ..............         0.000         0.000
  External Inflow ..........         0.102         1.024
  External Outflow .........         2.906        29.059
  Flooding Loss ............         0.273         2.729
  Evaporation Loss .........         0.000         0.000
  Exfiltration Loss ........         0.000         0.000
  Initial Stored Volume ....         0.076         0.761
  Final Stored Volume ......         0.494         4.939
  Continuity Error (%) .....        -7.996
  
  
  *************************
  Highest Continuity Errors
  *************************
  Node JK-storage (-34.72%)
  Node YS02001774 (29.90%)
  Node HS02004842 (17.68%)
  Node YS02001884 (12.08%)
  Node YSB1171 (3.62%)
  
  
  ***************************
  Time-Step Critical Elements
  ***************************
  Link 3 (94.91%)
  
  
  ********************************
  Highest Flow Instability Indexes
  ********************************
  Link WS02006252WS02006251 (55)
  Link YS02001619YS02001622 (34)
  Link YS02001629YS02163301 (32)
  Link YS02163301YS02001633 (31)
  Link YS02163601YS02164001 (31)
  
  
  *************************
  Routing Time Step Summary
  *************************
  Minimum Time Step           :     0.50 sec
  Average Time Step           :     0.72 sec
  Maximum Time Step           :     5.00 sec
  Percent in Steady State     :    -0.00
  Average Iterations per Step :     4.64
  Percent Not Converging      :    27.05
  
  
  ***************************
  Subcatchment Runoff Summary
  ***************************
  
  ------------------------------------------------------------------------------------------------------------------------------
                            Total      Total      Total      Total     Imperv       Perv      Total       Total     Peak  Runoff
                           Precip      Runon       Evap      Infil     Runoff     Runoff     Runoff      Runoff   Runoff   Coeff
  Subcatchment                 mm         mm         mm         mm         mm         mm         mm    10^6 ltr      LPS
  ------------------------------------------------------------------------------------------------------------------------------
  sub0                      10.63       0.00       0.00       0.74       8.62       0.00       8.62        0.01     1.33   0.811
  sub1                      10.63       0.00       0.00       1.17       8.20       0.00       8.20        0.05     9.09   0.772
  sub2                      10.63       0.00       0.00       3.93       5.79       0.00       5.79        0.05     8.42   0.544
  sub3                      10.63       0.00       0.00       3.93       5.75       0.00       5.75        0.13    19.27   0.541
  sub4                      10.63       0.00       0.00       1.17       8.05       0.00       8.05        0.17    23.93   0.757
  sub5                      10.63       0.00       0.00       0.74       8.57       0.00       8.57        0.10    16.17   0.806
  sub7                      10.63       0.00       0.00       0.96       8.41       0.00       8.41        0.03     5.13   0.792
  sub8                      10.63       0.00       0.00       0.96       8.41       0.00       8.41        0.05     9.46   0.791
  sub9                      10.63       0.00       0.00       0.96       8.40       0.00       8.40        0.04     7.08   0.791
  sub10                     10.63       0.00       0.00       0.85       8.48       0.00       8.48        0.09    15.87   0.798
  sub11                     10.63       0.00       0.00       0.85       8.50       0.00       8.50        0.10    17.56   0.800
  sub12                     10.63       0.00       0.00       1.38       8.06       0.00       8.06        0.07    13.15   0.758
  sub14                     10.63       0.00       0.00       0.96       8.40       0.00       8.40        0.08    13.93   0.791
  sub15                     10.63       0.00       0.00       3.19       6.46       0.00       6.46        0.11    19.14   0.608
  sub16                     10.63       0.00       0.00       3.51       6.20       0.00       6.20        0.06    12.01   0.584
  sub17                     10.63       0.00       0.00       3.40       6.29       0.00       6.29        0.05     9.91   0.592
  sub22                     10.63       0.00       0.00       4.57       5.27       0.00       5.27        0.33    59.53   0.496
  sub23                     10.63       0.00       0.00       3.93       5.82       0.00       5.82        0.28    50.05   0.548
  sub60                     10.63       0.00       0.00       1.28       6.54       0.00       6.54        1.98   196.13   0.615
  sub61                     10.63       0.00       0.00       1.81       6.69       0.00       6.69        2.06   224.83   0.630
  sub62                     10.63       0.00       0.00       0.85       7.26       0.00       7.26        2.23   236.97   0.684
  sub63                     10.63       0.00       0.00       3.08       5.87       0.00       5.87        1.78   199.96   0.553
  sub64                     10.63       0.00       0.00       1.59       6.27       0.00       6.27        1.91   187.22   0.590
  sub65                     10.63       0.00       0.00       1.38       6.37       0.00       6.37        1.96   190.91   0.599
  sub66                     10.63       0.00       0.00       3.08       5.39       0.00       5.39        1.65   167.73   0.507
  sub67                     10.63       0.00       0.00       0.85       7.71       0.00       7.71        2.38   272.25   0.726
  sub68                     10.63       0.00       0.00       1.49       7.05       0.00       7.05        2.17   241.26   0.664
  sub69                     10.63       0.00       0.00       1.59       7.35       0.00       7.35        1.72   204.41   0.692
  sub70                     10.63       7.50       0.00       6.16       9.71       0.01       9.71        2.22   229.02   0.536
  sub71                     10.63       0.00       0.00       0.85       7.06       0.00       7.06        1.67   170.86   0.664
  sub72                     10.63       0.00       0.00       0.74       5.52       0.00       5.52        1.12    91.59   0.519
  sub73                     10.63       9.45       0.00       6.83      10.48       0.00      10.49        2.46   215.21   0.522
  sub74                     10.63       0.00       0.00       7.97       2.19       0.00       2.19        0.88   108.49   0.206
  
  
  ******************
  Node Depth Summary
  ******************
  
  ---------------------------------------------------------------------------------
                                 Average  Maximum  Maximum  Time of Max    Reported
                                   Depth    Depth      HGL   Occurrence   Max Depth
  Node                 Type       Meters   Meters   Meters  days hr:min      Meters
  ---------------------------------------------------------------------------------
  WS02001211           JUNCTION     0.71     0.73     5.57     0  02:06        0.73
  WS02001212           JUNCTION     0.43     0.46     5.52     0  02:05        0.46
  WS02001213           JUNCTION     0.67     0.72     5.48     0  02:04        0.72
  WS02003069           JUNCTION     0.50     0.57     5.15     0  02:04        0.57
  WS02003072           JUNCTION     0.56     0.63     5.00     0  02:04        0.63
  WS02003073           JUNCTION     0.34     0.39     4.45     0  02:05        0.39
  WS02003060           JUNCTION     0.44     0.50     5.43     0  02:03        0.50
  WS02003066           JUNCTION     0.26     0.31     5.87     0  02:00        0.31
  WS02003059           JUNCTION     0.73     0.78     5.47     0  02:06        0.78
  WS02003067           JUNCTION     0.63     0.72     6.04     0  01:59        0.72
  WS02004401           JUNCTION     0.76     0.90     6.90     0  01:57        0.90
  WS02004402           JUNCTION     0.79     0.92     6.88     0  01:57        0.92
  WS02004403           JUNCTION     0.80     0.94     6.87     0  01:57        0.93
  WS02004404           JUNCTION     0.88     1.01     6.86     0  01:56        1.00
  WS02004406           JUNCTION     0.88     0.99     6.82     0  01:58        0.99
  WS02004409           JUNCTION     0.58     0.71     6.48     0  01:58        0.71
  WS02004410           JUNCTION     0.59     0.72     6.44     0  01:58        0.72
  WS02004411           JUNCTION     0.60     0.72     6.40     0  01:59        0.72
  WS02004412           JUNCTION     0.61     0.73     6.37     0  01:59        0.73
  WS02004413           JUNCTION     0.76     0.88     6.35     0  01:59        0.88
  WS02004405           JUNCTION     0.87     0.99     6.84     0  01:57        0.99
  WS02006109           JUNCTION     0.85     1.05     7.67     0  01:47        1.03
  WS02006110           JUNCTION     0.83     0.97     7.55     0  01:47        0.96
  WS02006111           JUNCTION     0.25     0.30     7.01     0  01:50        0.30
  WS02006112           JUNCTION     0.94     1.19     7.07     0  01:55        1.14
  WS02006113           JUNCTION     0.40     0.48     7.37     0  01:48        0.48
  WS02006115           JUNCTION     0.65     0.81     6.95     0  01:56        0.81
  WS02006116           JUNCTION     0.73     0.88     6.92     0  01:57        0.88
  WS02006230           JUNCTION     0.88     1.12     7.86     0  01:47        1.09
  WS02006231           JUNCTION     0.60     0.88     8.00     0  01:46        0.76
  WS02006232           JUNCTION     0.74     1.00     8.04     0  01:47        0.89
  WS02006234           JUNCTION     0.69     1.06     8.22     0  01:47        0.83
  WS02006235           JUNCTION     0.73     1.01     8.17     0  01:47        0.86
  WS02006238           JUNCTION     0.75     1.03     8.17     0  01:47        0.89
  WS02006240           JUNCTION     0.68     1.01     8.30     0  01:46        0.80
  WS02006242           JUNCTION     0.74     1.12     8.39     0  01:46        0.86
  WS02006243           JUNCTION     0.64     0.80     8.22     0  01:47        0.74
  WS02006245           JUNCTION     0.61     0.72     8.20     0  01:47        0.71
  WS02006247           JUNCTION     0.62     1.01     8.51     0  01:47        0.71
  WS02006248           JUNCTION     0.56     0.68     8.27     0  01:47        0.64
  WS02006249           JUNCTION     0.58     0.65     8.25     0  01:48        0.64
  WS02006239           JUNCTION     0.73     1.14     8.35     0  01:46        0.86
  WS02006251           JUNCTION     0.60     0.71     8.38     0  01:48        0.69
  WS02006252           JUNCTION     0.55     0.59     8.84     0  03:32        0.59
  WS02006253           JUNCTION     0.63     0.73     8.38     0  01:48        0.72
  WS02006256           JUNCTION     1.14     2.35     9.28     0  00:00        1.21
  WS02004138           JUNCTION     0.17     0.17     7.42     0  00:00        0.17
  WS02004407           JUNCTION     0.26     0.31     6.63     0  01:58        0.31
  WS02006228           JUNCTION     0.87     1.10     7.75     0  01:47        1.08
  WS02006229           JUNCTION     0.86     1.10     7.80     0  01:47        1.09
  WS02006280           JUNCTION     0.07     0.16     8.43     0  01:50        0.16
  WS02006284           JUNCTION     0.37     0.50     8.90     0  01:50        0.50
  WS02006287           JUNCTION     0.10     0.23     9.19     0  01:50        0.23
  WSF200               JUNCTION     0.26     0.33     5.56     0  02:00        0.33
  HS02004901           JUNCTION     0.13     0.24    10.06     0  01:47        0.24
  HS02004881           JUNCTION     0.01     0.03     9.06     0  01:50        0.03
  HS02004876           JUNCTION     0.05     0.11     9.14     0  01:47        0.11
  HS02004870           JUNCTION     0.02     0.05     9.33     0  01:50        0.05
  HS02004862           JUNCTION     0.02     0.05     9.44     0  01:51        0.05
  HS02004856           JUNCTION     0.08     0.11     9.54     0  01:51        0.11
  HS02004852           JUNCTION     0.01     0.03     9.54     0  01:52        0.03
  HS02004848           JUNCTION     0.01     0.03     9.63     0  01:51        0.03
  HS02004842           JUNCTION     0.33     0.36     9.63     0  01:51        0.36
  HS02004837           JUNCTION     0.03     0.05     9.63     0  01:51        0.05
  HS02004830           JUNCTION     0.04     0.07     9.54     0  01:51        0.07
  HS02004824           JUNCTION     0.02     0.05     9.45     0  02:16        0.05
  HS02004817           JUNCTION     0.45     0.54     9.39     0  01:51        0.54
  HS02004807           JUNCTION     0.13     0.22     9.39     0  01:51        0.22
  HS02004802           JUNCTION     0.17     0.25     9.38     0  01:51        0.25
  HS02004799           JUNCTION     0.13     0.28     9.49     0  01:48        0.28
  HS02004792           JUNCTION     0.04     0.11     9.63     0  01:47        0.11
  HS02004788           JUNCTION     0.03     0.08     9.98     0  01:48        0.08
  HS02004785           JUNCTION     0.05     0.14    10.04     0  01:48        0.14
  HS02004777           JUNCTION     0.15     0.26    10.06     0  01:47        0.26
  HS02004770           JUNCTION     0.12     0.23    10.06     0  01:47        0.23
  HS02004480           JUNCTION     0.09     0.21     9.46     0  01:48        0.21
  HS02004479           JUNCTION     0.12     0.25     9.46     0  01:48        0.25
  HS02004478           JUNCTION     0.07     0.14     9.37     0  01:49        0.14
  YS02001745           JUNCTION     0.59     0.85     8.37     0  03:27        0.85
  YS02001748           JUNCTION     0.98     1.68     8.75     0  02:53        1.29
  YS02001751           JUNCTION     1.17     2.01     8.89     0  02:34        1.50
  YS02001754           JUNCTION     1.43     2.01     8.62     0  02:34        1.79
  YS02001762           JUNCTION     1.63     2.02     8.42     0  03:31        2.01
  YS02001765           JUNCTION     1.58     1.97     8.42     0  03:22        1.96
  YS02001767           JUNCTION     1.55     1.93     8.41     0  03:21        1.92
  YS02001770           JUNCTION     1.54     1.95     8.44     0  02:35        1.90
  YS02001774           JUNCTION     1.61     2.02     8.44     0  02:35        1.96
  YS02001779           JUNCTION     1.36     1.68     8.37     0  02:27        1.68
  YS02001882           JUNCTION     0.42     0.71     7.43     0  03:04        0.71
  YS02001884           JUNCTION     0.52     0.81     7.43     0  03:04        0.81
  YS02001759           JUNCTION     1.67     2.06     8.43     0  03:25        2.05
  YS02001887           JUNCTION     0.60     0.89     7.43     0  03:04        0.89
  YS02001890           JUNCTION     0.63     0.92     7.42     0  03:03        0.92
  YS02001898           JUNCTION     0.39     0.67     7.41     0  03:03        0.67
  YS02001901           JUNCTION     0.51     0.80     7.41     0  03:03        0.80
  YS02001904           JUNCTION     0.49     0.77     7.40     0  03:03        0.77
  YS02001907           JUNCTION     0.82     1.12     7.41     0  03:03        1.12
  YS02001910           JUNCTION     0.61     0.90     7.41     0  03:03        0.90
  YS02001915           JUNCTION     0.41     0.69     7.41     0  03:03        0.69
  YS02001918           JUNCTION     0.15     0.34     7.41     0  03:04        0.34
  YS02001619           JUNCTION     1.14     1.61     8.54     0  02:36        1.47
  YS02001629           JUNCTION     1.50     1.85     8.40     0  02:41        1.84
  YS02001641           JUNCTION     1.61     1.96     8.39     0  02:49        1.93
  YS02001644           JUNCTION     1.61     1.92     8.35     0  02:49        1.92
  YS02001652           JUNCTION     1.44     2.16     8.76     0  02:29        2.16
  YS02001655           JUNCTION     1.20     2.20     9.05     0  02:25        2.11
  YS02001920           JUNCTION     0.25     0.41     7.41     0  03:03        0.41
  YS02001923           JUNCTION     0.10     0.14     7.40     0  03:01        0.14
  YS02001926           JUNCTION     0.20     0.26     7.71     0  03:01        0.26
  YS02001929           JUNCTION     0.10     0.14     7.84     0  03:01        0.14
  YS02001658           JUNCTION     0.93     2.30     9.44     0  02:36        1.72
  YS02001661           JUNCTION     0.70     2.46     9.86     0  03:10        1.39
  YS02001664           JUNCTION     0.27     0.57     8.50     0  03:01        0.56
  YS02001622           JUNCTION     1.17     1.62     8.52     0  02:36        1.49
  YS02001633           JUNCTION     1.60     1.97     8.42     0  02:50        1.94
  YS02001649           JUNCTION     1.64     2.05     8.44     0  02:29        2.05
  YS02001757           JUNCTION     1.76     2.17     8.43     0  03:22        2.15
  YS02001895           JUNCTION     0.39     0.67     7.42     0  03:04        0.67
  YS02001625           JUNCTION     1.45     1.78     8.38     0  02:39        1.78
  YS02163301           JUNCTION     1.53     1.91     8.43     0  02:48        1.88
  YS02163601           JUNCTION     1.65     2.03     8.42     0  02:49        1.99
  YS02164001           JUNCTION     1.59     1.96     8.42     0  02:49        1.92
  YS02001647           JUNCTION     1.43     1.80     8.41     0  02:40        1.79
  YSB1154              JUNCTION     0.27     0.40     9.46     0  01:48        0.40
  YSB6556              JUNCTION     0.16     0.29     9.46     0  01:48        0.29
  YSB1174              JUNCTION     0.22     0.35     9.46     0  01:48        0.35
  YSB1171              JUNCTION     0.42     0.55     9.46     0  01:48        0.55
  YS02006553           JUNCTION     0.82     1.11     7.40     0  03:01        1.11
  YS02006561           JUNCTION     0.22     0.44     7.10     0  03:11        0.44
  YS02006556           JUNCTION     0.79     1.08     7.40     0  03:01        1.07
  YS02006558           JUNCTION     0.84     1.12     7.39     0  03:01        1.10
  YS02001783           JUNCTION     0.40     1.18     7.32     0  03:18        0.98
  YS02001784           JUNCTION     0.43     1.20     7.27     0  03:18        0.99
  YS02001786           JUNCTION     0.37     1.05     7.08     0  03:09        0.93
  YS02001788           JUNCTION     0.29     1.00     6.98     0  03:18        0.89
  YS02001790           JUNCTION     0.37     1.21     6.86     0  03:18        1.13
  YS02001791           JUNCTION     0.28     1.25     6.72     0  03:18        1.20
  YS02001793           JUNCTION     0.30     1.81     6.64     0  03:18        1.79
  WS02004139           JUNCTION     0.65     0.67     5.58     0  02:06        0.67
  WSC                  OUTFALL      0.34     0.39     1.06     0  02:06        0.39
  3                    OUTFALL      0.16     0.23     6.23     0  00:00        0.21
  4                    OUTFALL      0.10     0.15     7.15     0  01:49        0.14
  5                    OUTFALL      0.00     0.00     5.00     0  00:00        0.00
  JK-storage           STORAGE      1.19     5.80     6.60     0  03:10        5.80
  CC-storage           STORAGE      0.95     1.33     8.33     0  03:36        1.33
  XR-storage           STORAGE      6.42     7.72     5.72     0  03:02        7.72
  
  
  *******************
  Node Inflow Summary
  *******************
  
  -------------------------------------------------------------------------------------------------
                                  Maximum  Maximum                  Lateral       Total        Flow
                                  Lateral    Total  Time of Max      Inflow      Inflow     Balance
                                   Inflow   Inflow   Occurrence      Volume      Volume       Error
  Node                 Type           LPS      LPS  days hr:min    10^6 ltr    10^6 ltr     Percent
  -------------------------------------------------------------------------------------------------
  WS02001211           JUNCTION      7.35   293.19     0  03:20       0.207        8.21       0.445
  WS02001212           JUNCTION      0.00   293.76     0  03:19           0        8.17       0.256
  WS02001213           JUNCTION      0.00   294.32     0  03:18           0        8.15       0.311
  WS02003069           JUNCTION      0.32   900.74     0  02:04     0.00902        18.5       0.187
  WS02003072           JUNCTION      0.00   900.64     0  02:04           0        18.4       0.223
  WS02003073           JUNCTION      1.82   902.42     0  02:05      0.0514        18.4       0.255
  WS02003060           JUNCTION     16.53   900.61     0  02:03       0.466        18.5       0.176
  WS02003066           JUNCTION      0.00   595.14     0  02:00           0        9.93       0.052
  WS02003059           JUNCTION      0.00   295.19     0  03:18           0        8.13       0.484
  WS02003067           JUNCTION      0.00   595.07     0  01:59           0        9.94       0.105
  WS02004401           JUNCTION      0.00   598.56     0  01:53           0        10.2       0.238
  WS02004402           JUNCTION      0.00   598.23     0  01:57           0        10.2       0.222
  WS02004403           JUNCTION      0.00   597.44     0  01:57           0        10.2       0.199
  WS02004404           JUNCTION      0.16   598.05     0  01:57     0.00457        10.1       0.146
  WS02004406           JUNCTION      0.00   597.69     0  01:57           0        10.1       0.356
  WS02004409           JUNCTION      0.00   596.71     0  01:58           0        10.1       0.196
  WS02004410           JUNCTION      0.00   596.08     0  01:58           0          10       0.218
  WS02004411           JUNCTION      0.00   595.63     0  01:58           0          10       0.220
  WS02004412           JUNCTION      0.00   595.39     0  01:59           0          10       0.233
  WS02004413           JUNCTION      0.00   595.28     0  01:59           0        9.98       0.340
  WS02004405           JUNCTION      0.04   598.22     0  01:57     0.00107        10.1       0.221
  WS02006109           JUNCTION      1.23   596.09     0  01:47      0.0347        10.3       0.231
  WS02006110           JUNCTION      0.00   596.00     0  01:47           0        10.3       0.213
  WS02006111           JUNCTION      0.00   618.68     0  01:48           0        10.2       0.049
  WS02006112           JUNCTION      9.91   609.48     0  01:50       0.054        10.3       0.302
  WS02006113           JUNCTION      0.00   597.03     0  01:48           0        10.2       0.117
  WS02006115           JUNCTION      0.00   619.68     0  01:53           0        10.3       0.236
  WS02006116           JUNCTION      0.00   601.19     0  01:53           0        10.2       0.223
  WS02006230           JUNCTION     10.28   402.12     0  04:28        0.29        8.66       0.200
  WS02006231           JUNCTION      0.00   391.80     0  04:28           0        8.38       0.138
  WS02006232           JUNCTION      0.00   391.80     0  04:28           0         8.4       0.211
  WS02006234           JUNCTION      0.00   391.78     0  04:28           0        8.41       0.122
  WS02006235           JUNCTION      0.00   391.78     0  04:28           0        8.44       0.147
  WS02006238           JUNCTION      0.00   311.46     0  07:50           0         6.5       0.141
  WS02006240           JUNCTION      0.00   326.40     0  01:45           0         6.5       0.246
  WS02006242           JUNCTION      0.00   342.79     0  01:45           0        6.51       0.288
  WS02006243           JUNCTION      0.00   359.61     0  01:44           0        6.52       0.209
  WS02006245           JUNCTION      0.00   370.42     0  01:44           0        6.53       0.184
  WS02006247           JUNCTION      0.00   376.39     0  01:44           0        6.54       0.162
  WS02006248           JUNCTION      0.00   383.69     0  01:44           0        6.55       0.122
  WS02006249           JUNCTION      0.00   465.64     0  01:48           0        9.14       0.159
  WS02006239           JUNCTION      0.00   311.44     0  07:50           0         6.5       0.226
  WS02006251           JUNCTION      0.08   477.00     0  01:48     0.00217        9.16       0.155
  WS02006252           JUNCTION      0.00   400.00     0  01:43           0        8.85       0.006
  WS02006253           JUNCTION      1.33    53.09     0  01:41     0.00698        0.31       2.718
  WS02006256           JUNCTION      0.00   600.00     0  00:00           0        10.1       0.024
  WS02004138           JUNCTION      0.00   285.00     0  00:00           0        8.04       0.064
  WS02004407           JUNCTION      0.00   597.06     0  01:58           0        10.1       0.088
  WS02006228           JUNCTION      0.00   594.85     0  01:47           0        10.3       0.166
  WS02006229           JUNCTION      0.00   594.97     0  01:47           0        10.3       0.126
  WS02006280           JUNCTION      0.00   250.77     0  01:50           0        1.65       0.004
  WS02006284           JUNCTION      0.10   250.79     0  01:50      0.0027        1.65       0.062
  WS02006287           JUNCTION      0.00   250.70     0  01:50           0        1.65       0.044
  WSF200               JUNCTION      0.00   595.19     0  02:00           0        9.93       0.054
  HS02004901           JUNCTION     12.01    12.01     0  01:45      0.0649      0.0651       2.778
  HS02004881           JUNCTION      5.13    49.92     0  01:49      0.0283       0.303       0.115
  HS02004876           JUNCTION      9.09    44.88     0  01:50      0.0545       0.275       0.197
  HS02004870           JUNCTION      9.46    35.90     0  01:50      0.0537       0.221       0.049
  HS02004862           JUNCTION      8.62    26.77     0  01:51      0.0595       0.167       0.103
  HS02004856           JUNCTION      7.08    18.19     0  01:50      0.0404       0.109       1.339
  HS02004852           JUNCTION      0.00    11.37     0  01:51           0      0.0688       0.079
  HS02004848           JUNCTION     19.27    19.27     0  02:15       0.129       0.129       0.035
  HS02004842           JUNCTION      0.00     7.96     0  02:16           0      0.0736      21.473
  HS02004837           JUNCTION     22.22    28.76     0  01:50       0.273       0.333       0.245
  HS02004830           JUNCTION      0.15    28.90     0  01:51     0.00423       0.323       0.383
  HS02004824           JUNCTION     23.98    52.78     0  02:16       0.169       0.492       0.110
  HS02004817           JUNCTION      0.60    53.38     0  02:16      0.0169       0.508       3.394
  HS02004807           JUNCTION     17.56    68.44     0  02:16      0.0987        0.59       0.739
  HS02004802           JUNCTION      0.00    68.45     0  02:16           0       0.587       0.681
  HS02004799           JUNCTION     13.93   155.61     0  01:47      0.0799       0.915       0.288
  HS02004792           JUNCTION     59.81   141.74     0  01:47       0.341       0.835       0.049
  HS02004788           JUNCTION     20.81    82.39     0  01:48       0.158       0.496       0.078
  HS02004785           JUNCTION      0.15    61.69     0  01:47     0.00423       0.339       0.145
  HS02004777           JUNCTION      0.03    61.69     0  01:46    0.000846        0.34       1.552
  HS02004770           JUNCTION     50.05    61.90     0  01:46       0.278       0.341       0.915
  HS02004480           JUNCTION      0.00   184.53     0  01:48           0        1.08       0.105
  HS02004479           JUNCTION      0.00    29.01     0  01:50           0       0.176       0.418
  HS02004478           JUNCTION      0.00   250.67     0  01:49           0        1.65       0.021
  YS02001745           JUNCTION    196.14   232.69     0  02:49        1.98        1.99       0.187
  YS02001748           JUNCTION      0.04   416.52     0  02:50     0.00127        1.98       0.789
  YS02001751           JUNCTION      0.01   327.07     0  02:21     0.00031        1.96       1.141
  YS02001754           JUNCTION      0.26   244.13     0  02:28     0.00733        1.95       1.274
  YS02001762           JUNCTION      0.00   240.34     0  02:52           0        2.14       0.983
  YS02001765           JUNCTION      0.00   239.07     0  03:00           0        2.15       1.136
  YS02001767           JUNCTION      0.54   238.81     0  03:00      0.0151        2.17       1.668
  YS02001770           JUNCTION    237.12   237.87     0  03:00        2.24        2.25       1.393
  YS02001774           JUNCTION      0.00    59.88     0  02:06           0      0.0837      42.644
  YS02001779           JUNCTION      0.01    59.04     0  02:06    0.000141      0.0459      49.592
  YS02001882           JUNCTION      0.00    12.22     0  03:21           0      0.0159      15.017
  YS02001884           JUNCTION      0.00    16.56     0  02:11           0      0.0472      13.736
  YS02001759           JUNCTION    224.87   463.94     0  02:59        2.06        4.17       0.541
  YS02001887           JUNCTION    272.70   272.70     0  02:58        2.39        2.42       0.334
  YS02001890           JUNCTION      0.00   270.28     0  02:56           0        2.38       0.371
  YS02001898           JUNCTION      0.00   268.45     0  02:36           0        2.36       0.115
  YS02001901           JUNCTION      0.00   270.05     0  02:35           0        2.36       0.277
  YS02001904           JUNCTION      0.00   272.15     0  03:08           0        2.36       0.252
  YS02001907           JUNCTION      0.00   553.88     0  03:09           0        5.21       0.430
  YS02001910           JUNCTION      0.00   277.02     0  03:08           0        2.86       0.395
  YS02001915           JUNCTION    170.88   266.53     0  03:07        1.67        2.86       0.196
  YS02001918           JUNCTION      0.00    99.44     0  03:08           0         1.2       0.142
  YS02001619           JUNCTION    167.73   167.73     0  03:01        1.65        1.65       0.634
  YS02001629           JUNCTION      0.00   190.33     0  02:27           0        1.58       1.582
  YS02001641           JUNCTION      0.00   368.50     0  02:36           0        3.44       0.606
  YS02001644           JUNCTION    187.26   548.62     0  02:59        1.91        5.51       0.470
  YS02001652           JUNCTION      0.00   275.64     0  02:36           0        1.75       1.305
  YS02001655           JUNCTION      0.15   443.04     0  02:28     0.00434        1.78       1.198
  YS02001920           JUNCTION      2.87    94.35     0  03:01      0.0809         1.2       0.227
  YS02001923           JUNCTION      0.04    91.49     0  03:01     0.00106        1.12       0.042
  YS02001926           JUNCTION      0.05    91.60     0  03:01     0.00147        1.12       0.282
  YS02001929           JUNCTION     91.59    91.59     0  03:01        1.12        1.12       0.041
  YS02001658           JUNCTION      0.00   617.95     0  02:35           0        1.84       0.572
  YS02001661           JUNCTION      0.00   606.60     0  03:01           0        2.53      -0.415
  YS02001664           JUNCTION    199.96   382.81     0  03:02        1.78        2.48       0.092
  YS02001622           JUNCTION      0.00   174.11     0  02:10           0        1.64       1.773
  YS02001633           JUNCTION    191.11   368.11     0  02:36        1.96         3.5       0.900
  YS02001649           JUNCTION      0.00   752.87     0  02:58           0        5.33       0.692
  YS02001757           JUNCTION      0.00  1389.65     0  02:58           0        11.1       0.829
  YS02001895           JUNCTION      0.00   268.90     0  02:56           0        2.37       0.201
  YS02001625           JUNCTION      0.00   190.39     0  02:27           0        1.61       2.456
  YS02163301           JUNCTION      0.00   202.07     0  02:34           0        1.57       1.530
  YS02163601           JUNCTION      0.11   368.04     0  02:36      0.0031        3.46       0.869
  YS02164001           JUNCTION      0.00   367.79     0  02:36           0        3.44       0.571
  YS02001647           JUNCTION      0.00   548.52     0  02:59           0         3.8       0.725
  YSB1154              JUNCTION     16.17    16.17     0  01:48       0.097      0.0978       1.500
  YSB6556              JUNCTION      0.00    16.24     0  01:49           0      0.0986       1.284
  YSB1174              JUNCTION     13.15    13.15     0  01:45      0.0704      0.0709       1.845
  YSB1171              JUNCTION      0.00    29.31     0  01:48           0       0.175       3.755
  YS02006553           JUNCTION      0.00   553.88     0  03:09           0         5.2       0.281
  YS02006561           JUNCTION      0.00   767.21     0  03:09           0        7.33       0.009
  YS02006556           JUNCTION      0.00   554.00     0  03:09           0         5.2       0.213
  YS02006558           JUNCTION    242.14   765.86     0  03:09        2.19        7.37       0.070
  YS02001783           JUNCTION      0.00   775.34     0  03:08           0        7.33       0.027
  YS02001784           JUNCTION      1.06   768.12     0  03:09      0.0299        7.36       0.044
  YS02001786           JUNCTION      0.06   765.75     0  03:09     0.00159        7.36       0.042
  YS02001788           JUNCTION      0.07   761.57     0  03:00       0.002        7.36       0.026
  YS02001790           JUNCTION      0.15   761.64     0  03:00     0.00437        7.36       0.032
  YS02001791           JUNCTION      0.00   786.62     0  03:00           0        7.36       0.014
  YS02001793           JUNCTION      0.00   779.69     0  03:00           0        7.36       0.004
  WS02004139           JUNCTION      0.32   290.33     0  00:00     0.00905        8.04       0.491
  WSC                  OUTFALL       0.00   902.38     0  02:06           0        18.4       0.000
  3                    OUTFALL       0.00   597.65     0  00:00           0         8.1       0.000
  4                    OUTFALL       0.00   199.23     0  01:49           0        2.58       0.000
  5                    OUTFALL       0.00     0.00     0  00:00           0           0       0.000 ltr
  JK-storage           STORAGE       0.00   766.58     0  03:00           0        7.51     -25.774
  CC-storage           STORAGE       0.00  1389.71     0  02:58           0          11      -0.150
  XR-storage           STORAGE     519.52   519.52     0  03:01        8.98        9.58      -0.000
  
  
  **********************
  Node Surcharge Summary
  **********************
  
  Surcharging occurs when water rises above the top of the highest conduit.
  ---------------------------------------------------------------------
                                               Max. Height   Min. Depth
                                   Hours       Above Crown    Below Rim
  Node                 Type      Surcharged         Meters       Meters
  ---------------------------------------------------------------------
  WS02004404           JUNCTION        0.14          0.006        2.774
  WS02006109           JUNCTION        6.09          0.229        1.591
  WS02006110           JUNCTION        1.36          0.059        1.791
  WS02006112           JUNCTION        1.51          0.188        1.492
  WS02006230           JUNCTION        0.20          0.035        1.535
  WS02006231           JUNCTION        0.91          0.171        1.359
  WS02006232           JUNCTION        6.07          0.298        1.182
  WS02006234           JUNCTION        1.70          0.340        0.900
  WS02006235           JUNCTION        6.06          0.299        0.991
  WS02006238           JUNCTION        6.07          0.308        1.122
  WS02006240           JUNCTION        2.09          0.299        1.091
  WS02006242           JUNCTION        6.06          0.389        0.431
  WS02006243           JUNCTION        1.30          0.093        0.677
  WS02006245           JUNCTION        0.01          0.008        0.842
  WS02006247           JUNCTION        0.01          0.303        0.457
  WS02006239           JUNCTION        3.55          0.399        0.891
  WS02006252           JUNCTION        6.14          0.193        0.907
  WS02006256           JUNCTION        0.01          1.050        0.000
  WS02006228           JUNCTION        6.09          0.269        1.931
  YS02001748           JUNCTION        3.55          0.596        0.594
  YS02001751           JUNCTION        4.96          1.007        0.193
  YS02001754           JUNCTION        5.55          0.958        0.192
  YS02001762           JUNCTION        5.94          1.024        0.126
  YS02001765           JUNCTION        5.90          0.969        0.131
  YS02001767           JUNCTION        5.75          0.926        0.104
  YS02001770           JUNCTION        5.72          0.918        0.002
  YS02001774           JUNCTION        5.93          1.015        0.035
  YS02001779           JUNCTION        5.54          0.680        0.000
  YS02001759           JUNCTION        5.96          1.062        0.148
  YS02001907           JUNCTION        1.20          0.106        0.844
  YS02001619           JUNCTION        4.77          0.610        0.000
  YS02001629           JUNCTION        4.81          0.470        0.000
  YS02001641           JUNCTION        5.92          0.958        0.142
  YS02001644           JUNCTION        5.92          0.920        0.000
  YS02001652           JUNCTION        5.60          1.130        0.000
  YS02001655           JUNCTION        5.09          1.200        0.000
  YS02001658           JUNCTION        3.63          1.300        0.000
  YS02001661           JUNCTION        0.16          1.390        0.000
  YS02001622           JUNCTION        4.97          0.620        0.000
  YS02001633           JUNCTION        5.87          0.950        0.110
  YS02001649           JUNCTION        5.94          1.050        0.000
  YS02001757           JUNCTION        6.03          1.165        0.045
  YS02001625           JUNCTION        5.68          0.780        0.000
  YS02163301           JUNCTION        5.75          0.914        0.116
  YS02163601           JUNCTION        5.95          1.026        0.054
  YS02164001           JUNCTION        5.90          0.959        0.141
  YS02001647           JUNCTION        5.63          0.803        0.097
  YS02006553           JUNCTION        1.30          0.114        1.076
  YS02006556           JUNCTION        0.21          0.044        1.306
  YS02006558           JUNCTION        0.08          0.020        1.380
  YS02001783           JUNCTION        0.23          0.378        1.222
  YS02001784           JUNCTION        0.27          0.403        1.087
  YS02001786           JUNCTION        0.21          0.252        1.178
  YS02001788           JUNCTION        0.17          0.202        1.278
  YS02001790           JUNCTION        0.45          0.411        0.746
  YS02001791           JUNCTION        0.51          0.446        1.474
  YS02001793           JUNCTION        0.68          0.808        1.792
  
  
  *********************
  Node Flooding Summary
  *********************
  
  Flooding refers to all water that overflows a node, whether it ponds or not.
  --------------------------------------------------------------------------
                                                             Total   Maximum
                                 Maximum   Time of Max       Flood    Ponded
                        Hours       Rate    Occurrence      Volume     Depth
  Node                 Flooded       LPS   days hr:min    10^6 ltr    Meters
  --------------------------------------------------------------------------
  WS02006256              0.01    406.11      0  00:00       0.001     0.000
  YS02001779              1.18     18.91      0  03:25       0.019     0.000
  YS02001619              0.01     37.57      0  02:39       0.000     0.000
  YS02001629              0.01     32.05      0  02:43       0.000     0.000
  YS02001644              2.34    540.90      0  03:32       1.856     0.000
  YS02001652              0.01     31.70      0  02:30       0.000     0.000
  YS02001655              0.01    372.22      0  02:28       0.002     0.000
  YS02001658              0.01    367.64      0  02:40       0.001     0.000
  YS02001661              0.01    149.64      0  03:11       0.000     0.000
  YS02001622              0.01     44.22      0  02:41       0.000     0.000
  YS02001649              0.05     40.69      0  03:11       0.003     0.000
  YS02001625              0.12     23.58      0  02:44       0.001     0.000
  JK-storage              0.16    114.05      0  03:10       0.042     0.000
  XR-storage              2.74    229.84      0  03:02       0.804     0.000
  
  
  **********************
  Storage Volume Summary
  **********************
  
  --------------------------------------------------------------------------------------------------
                         Average     Avg  Evap Exfil       Maximum     Max    Time of Max    Maximum
                          Volume    Pcnt  Pcnt  Pcnt        Volume    Pcnt     Occurrence    Outflow
  Storage Unit           1000 m3    Full  Loss  Loss       1000 m3    Full    days hr:min        LPS
  --------------------------------------------------------------------------------------------------
  JK-storage               0.060      20     0     0         0.291     100       0  03:10     600.00
  CC-storage               2.658      17     0     0         3.715      24       0  03:36     400.00
  XR-storage               0.770      83     0     0         0.926     100       0  03:02     285.00
  
  
  ***********************
  Outfall Loading Summary
  ***********************
  
  -----------------------------------------------------------
                         Flow       Avg       Max       Total
                         Freq      Flow      Flow      Volume
  Outfall Node           Pcnt       LPS       LPS    10^6 ltr
  -----------------------------------------------------------
  WSC                   99.99    729.77    902.38      18.381
  3                     96.77    379.16    597.65       8.100
  4                     93.70    120.25    199.23       2.577
  5                      0.00      0.00      0.00       0.000
  -----------------------------------------------------------
  System                72.62   1229.18   1616.76      29.059
  
  
  ********************
  Link Flow Summary
  ********************
  
  -----------------------------------------------------------------------------
                                 Maximum  Time of Max   Maximum    Max/    Max/
                                  |Flow|   Occurrence   |Veloc|    Full    Full
  Link                 Type          LPS  days hr:min     m/sec    Flow   Depth
  -----------------------------------------------------------------------------
  WS02003066WSF200     CONDUIT    595.19     0  02:00      2.76    0.10    0.25
  WS02006287WS02006284 CONDUIT    250.69     0  01:50      1.73    0.12    0.24
  WS02006284WS02006280 CONDUIT    250.77     0  01:50      1.97    0.11    0.22
  WS02006280WS02006229 CONDUIT    250.77     0  01:50      3.17    0.05    0.16
  WS02006229WS02006228 CONDUIT    594.85     0  01:47      1.18    1.97    1.00
  WS02006256WS02006235 CONDUIT    177.52     0  00:01      2.73    1.88    1.00
  WS02006253WS02006251 CONDUIT     76.92     0  01:48      0.51    0.23    1.00
  WS02006252WS02006251 CONDUIT    400.39     0  07:04      3.19    1.47    1.00
  WS02006251WS02006249 CONDUIT    465.64     0  01:48      1.26    1.34    0.96
  WS02006249WS02006248 CONDUIT    383.69     0  01:44      1.25    2.10    0.92
  WS02006248WS02006247 CONDUIT    376.39     0  01:44      1.22    0.82    0.98
  WS02006247WS02006245 CONDUIT    370.42     0  01:44      1.19    2.94    1.00
  WS02006245WS02006243 CONDUIT    359.61     0  01:44      1.23    1.06    1.00
  WS02006243WS02006242 CONDUIT    342.79     0  01:45      1.04    0.73    1.00
  WS02006242WS02006240 CONDUIT    326.40     0  01:45      0.92    1.30    1.00
  WS02006240WS02006239 CONDUIT    311.44     0  07:50      0.88    0.98    1.00
  WS02006239WS02006238 CONDUIT    311.46     0  07:50      0.81    1.00    1.00
  WS02006238WS02006235 CONDUIT    311.46     0  07:50      1.32    0.70    1.00
  WS02006235WS02006234 CONDUIT    391.78     0  04:28      1.02    4.13    1.00
  WS02006234WS02006232 CONDUIT    391.80     0  04:28      1.17    0.79    1.00
  WS02006232WS02006231 CONDUIT    391.80     0  04:28      1.06    0.82    1.00
  WS02006231WS02006230 CONDUIT    391.84     0  04:28      1.25    5.94    1.00
  WS02006230WS02006229 CONDUIT    402.20     0  04:29      1.05    8.95    1.00
  WS02006228WS02006109 CONDUIT    594.86     0  01:47      1.18    2.60    1.00
  WS02006116WS02004401 CONDUIT    598.56     0  01:53      0.84    0.83    0.89
  WS02006115WS02006116 CONDUIT    601.19     0  01:53      0.96    0.77    0.82
  WS02006113WS02006111 CONDUIT    618.68     0  01:48      2.55    0.74    0.49
  WS02006112WS02006115 CONDUIT    619.68     0  01:53      0.85    0.37    0.90
  WS02006111WS02006112 CONDUIT    600.07     0  01:50      1.64    0.29    0.68
  WS02006110WS02006113 CONDUIT    597.03     0  01:48      1.39    0.54    0.80
  WS02006109WS02006110 CONDUIT    596.00     0  01:47      1.19    1.15    1.00
  WS02004411WS02004412 CONDUIT    595.39     0  01:59      0.97    0.85    0.73
  WS02004401WS02004402 CONDUIT    598.23     0  01:57      0.80    0.72    0.91
  WS02004413WS02003067 CONDUIT    595.07     0  01:59      1.18    0.25    0.61
  WS02004412WS02004413 CONDUIT    595.28     0  01:59      0.88    0.40    0.81
  WS02004410WS02004411 CONDUIT    595.63     0  01:58      0.98    0.81    0.72
  WS02004409WS02004410 CONDUIT    596.08     0  01:58      1.02    0.77    0.71
  WS02004407WS02004409 CONDUIT    596.71     0  01:58      1.55    0.21    0.51
  WS02004406WS02004407 CONDUIT    597.06     0  01:58      1.11    0.27    0.65
  WS02004405WS02004406 CONDUIT    597.69     0  01:57      0.76    1.18    0.99
  WS02004404WS02004405 CONDUIT    598.18     0  01:57      0.76    5.86    1.00
  WS02004403WS02004404 CONDUIT    597.89     0  01:57      0.77    0.43    0.97
  WS02004402WS02004403 CONDUIT    597.44     0  01:57      0.78    0.86    0.93
  WS02004139WS02001211 CONDUIT    285.84     0  03:20      0.80    0.36    0.54
  WS02004138WS02004139 CONDUIT    290.01     0  00:00      3.34    0.06    0.39
  WS02003067WS02003066 CONDUIT    595.14     0  02:00      1.28    0.19    0.43
  WS02001213WS02003059 CONDUIT    295.19     0  03:18      0.80    0.49    0.74
  WS02001212WS02001213 CONDUIT    294.32     0  03:18      1.19    0.45    0.43
  WS02001211WS02001212 CONDUIT    293.76     0  03:19      0.67    0.22    0.59
  WS02003072WS02003073 CONDUIT    900.60     0  02:05      1.70    1.95    0.47
  WS02003069WS02003072 CONDUIT    900.64     0  02:04      1.60    0.43    0.50
  WS02003060WS02003069 CONDUIT    900.42     0  02:04      1.85    0.35    0.45
  WS02003059WS02003060 CONDUIT    296.35     0  03:17      0.82    0.19    0.64
  HS02004901HS02004770 CONDUIT     11.86     0  01:47      0.05    0.04    0.34
  HS02004876HS02004881 CONDUIT     44.96     0  01:50      0.68    0.48    0.09
  HS02004870HS02004876 CONDUIT     35.89     0  01:50      0.47    0.02    0.11
  HS02004842HS02004848 CONDUIT      7.96     0  02:16      0.04    0.00    0.28
  HS02004837HS02004842 CONDUIT      8.06     0  02:20      0.41    0.00    0.30
  HS02004830HS02004837 CONDUIT     28.75     0  01:51      0.48    0.03    0.09
  HS02004824HS02004830 CONDUIT     28.90     0  01:52      0.51    0.04    0.08
  HS02004817HS02004824 CONDUIT     52.78     0  02:16      0.18    0.02    0.42
  HS02004770HS02004777 CONDUIT     61.66     0  01:46      0.25    0.11    0.35
  HS02004799HS02004480 CONDUIT    155.54     0  01:47      0.65    0.20    0.34
  HS02004792HS02004799 CONDUIT    141.71     0  01:47      0.74    0.09    0.27
  HS02004788HS02004792 CONDUIT     82.36     0  01:48      0.88    0.05    0.13
  HS02004785HS02004788 CONDUIT     61.65     0  01:48      0.55    0.46    0.16
  HS02004777HS02004785 CONDUIT     61.54     0  01:47      0.30    0.08    0.29
  HS02004480HS02004478 CONDUIT    184.33     0  01:49      1.04    0.78    0.25
  HS02004479HS02004480 CONDUIT     29.23     0  01:51      0.28    0.03    0.33
  HS02004862HS02004870 CONDUIT     26.75     0  01:51      0.52    0.03    0.07
  HS02004848HS02004852 CONDUIT     11.37     0  01:51      0.35    0.01    0.05
  HS02004856HS02004862 CONDUIT     18.17     0  01:51      0.38    0.02    0.07
  HS02004852HS02004856 CONDUIT     11.35     0  01:52      0.16    0.01    0.10
  HS02004802HS02004478 CONDUIT     68.53     0  02:17      0.36    0.06    0.28
  HS02004478WS02006287 CONDUIT    250.70     0  01:50      1.43    0.07    0.19
  HS02004817HS02004807 CONDUIT     53.46     0  02:17      0.14    0.03    0.54
  HS02004807HS02004802 CONDUIT     68.45     0  02:16      0.30    0.13    0.33
  YS02001759YS02001757 CONDUIT    464.07     0  02:58      0.59    0.33    1.00
  YS02001762YS02001759 CONDUIT    241.53     0  02:52      0.31    0.28    1.00
  YS02001765YS02001762 CONDUIT    240.34     0  02:52      0.31    0.23    1.00
  YS02001770YS02001767 CONDUIT    238.28     0  03:00      0.38    0.94    1.00
  YS02001774YS02001770 CONDUIT     59.88     0  02:06      0.24    0.04    1.00
  YS02001779YS02001774 CONDUIT     59.03     0  02:06      0.08    0.03    1.00
  YS02001649YS02001757 CONDUIT    752.69     0  02:58      0.96    0.46    1.00
  YS02001767YS02001765 CONDUIT    239.07     0  03:00      0.35    0.30    1.00
  YS02006561YS02001783 CONDUIT    775.34     0  03:08      2.18    0.40    0.77
  YS02001783YS02001784 CONDUIT    767.06     0  03:09      1.64    1.06    1.00
  YS02001784YS02001785 CONDUIT    765.69     0  03:09      1.78    1.78    1.00
  YS02001788YS02001790 CONDUIT    761.48     0  03:00      2.32    0.56    1.00
  YS02001790YS02001791 CONDUIT    786.62     0  03:00      2.86    0.86    1.00
  YS02001791YS02001793 CONDUIT    779.69     0  03:00      5.74    0.33    1.00
  YS02001910YS02001907 CONDUIT    279.78     0  03:08      0.49    0.16    0.95
  YS02001786YS02001788 CONDUIT    761.50     0  03:00      2.23    1.47    1.00
  YS02001915YS02001910 CONDUIT    277.02     0  03:08      0.56    0.14    0.79
  YS02001918YS02001915 CONDUIT    109.52     0  03:07      0.44    0.06    0.51
  YS02001923YS02001920 CONDUIT     91.48     0  03:01      0.64    0.04    0.27
  YS02001926YS02001923 CONDUIT     91.45     0  03:01      0.74    0.13    0.21
  YS02001929YS02001926 CONDUIT     91.54     0  03:01      0.81    0.04    0.20
  YS02001920YS02001918 CONDUIT     99.44     0  03:08      0.63    0.10    0.37
  YS02001629YS02163301 CONDUIT    202.07     0  02:34      0.26    0.25    1.00
  YS02001619YS02001622 CONDUIT    174.11     0  02:10      0.65    0.26    1.00
  YS02001622YS02001625 CONDUIT    190.39     0  02:27      0.32    0.10    1.00
  YS02001625YS02001629 CONDUIT    190.33     0  02:27      0.26    0.09    1.00
  YS02163301YS02001633 CONDUIT    202.23     0  02:34      0.26    0.19    1.00
  YS02163601YS02164001 CONDUIT    367.79     0  02:36      0.47    0.33    1.00
  YS02164001YS02001641 CONDUIT    368.50     0  02:36      0.47    0.50    1.00
  YS02001641YS02001644 CONDUIT    368.81     0  02:36      0.47    1.19    1.00
  YS02001647YS02001649 CONDUIT    549.06     0  02:59      0.70    0.29    1.00
  YS02006553YS02006556 CONDUIT    554.00     0  03:09      0.71    0.47    1.00
  YS02006556YS02006558 CONDUIT    554.14     0  03:09      0.71    0.44    1.00
  YSB6556YSB1171       CONDUIT     16.50     0  01:50      0.07    0.02    0.60
  YS02001907YS02006553 CONDUIT    553.88     0  03:09      0.62    0.65    1.00
  YS02006558YS02006561 CONDUIT    767.21     0  03:09      3.28    1.70    0.84
  YS02001633YS02163601 CONDUIT    367.93     0  02:36      0.47    0.39    1.00
  YS02001644YS02001647 CONDUIT    548.52     0  02:59      0.70    0.32    1.00
  YS02001745YS02001748 CONDUIT    416.47     0  02:50      1.51    0.16    0.93
  YS02001748YS02001751 CONDUIT    327.06     0  02:21      1.12    0.17    1.00
  YS02001751YS02001754 CONDUIT    243.87     0  02:28      0.97    0.12    1.00
  YS02001754YS02001757 CONDUIT    246.54     0  02:28      0.33    0.10    1.00
  YS02001882YS02001884 CONDUIT     13.64     0  03:21      0.12    0.02    0.73
  YS02001884YS02001887 CONDUIT     17.01     0  03:32      0.09    0.02    0.82
  YS02001890YS02001895 CONDUIT    268.90     0  02:56      0.44    0.13    0.79
  YS02001895YS02001898 CONDUIT    268.45     0  02:36      0.55    0.47    0.66
  YS02001898YS02001901 CONDUIT    270.05     0  02:35      0.48    0.17    0.74
  YS02001901YS02001904 CONDUIT    272.15     0  03:08      0.44    0.42    0.79
  YS02001904YS02001907 CONDUIT    277.59     0  03:09      0.38    0.10    0.89
  YS02001887YS02001890 CONDUIT    270.28     0  02:56      0.39    0.46    0.88
  YS02001652YS02001649 CONDUIT    275.78     0  02:36      0.58    0.14    1.00
  YS02001655YS02001652 CONDUIT    275.64     0  02:36      1.05    0.13    1.00
  YS02001658YS02001655 CONDUIT    442.88     0  02:28      1.29    0.19    1.00
  YS02001661YS02001658 CONDUIT    617.95     0  02:35      1.59    0.24    1.00
  YS02001664YS02001661 CONDUIT    606.60     0  03:01      1.53    0.19    0.70
  YSB1154YSB6556       CONDUIT     16.24     0  01:49      0.16    0.03    0.49
  YSB1174YSB1171       CONDUIT     13.23     0  01:45      0.06    0.02    0.61
  YSB1171HS02004479    CONDUIT     29.01     0  01:50      0.54    0.02    0.47
  HS02004881HS02006253 CONDUIT     49.92     0  01:50      1.75    0.01    0.30
  YS02001793JiankangQianchi CONDUIT    766.58     0  03:00     16.40    0.06    1.00
  YS02001757CaochengTiaoxuchi CONDUIT   1389.71     0  02:58      2.35    0.61    1.00
  WSF200WS02003060     CONDUIT    595.34     0  02:00      1.71    0.13    0.35
  1                    CONDUIT    902.38     0  02:06      3.24    0.31    0.39
  2                    CONDUIT    199.23     0  01:49      5.84    0.48    0.49
  3                    CONDUIT    597.65     0  00:00     10.05    0.95    0.86
  4                    CONDUIT      0.00     0  00:00      0.00    0.00    0.00
  CC-Pump-1            PUMP       200.00     0  01:43              1.00
  CC-Pump-2            PUMP       200.00     0  01:43              1.00
  JK-Pump-1            PUMP       300.00     0  00:00              1.00
  JK-Pump-2            PUMP       300.00     0  00:00              1.00
  XR-Pump-1            PUMP        95.00     0  00:00              1.00
  XR-Pump-2            PUMP        95.00     0  00:00              1.00
  XR-Pump-3            PUMP         0.00     0  00:00              0.00
  XR-Pump-4            PUMP        95.00     0  00:00              1.00
  
  
  ***************************
  Flow Classification Summary
  ***************************
  
  -------------------------------------------------------------------------------------
                      Adjusted    ---------- Fraction of Time in Flow Class ---------- 
                       /Actual         Up    Down  Sub   Sup   Up    Down  Norm  Inlet 
  Conduit               Length    Dry  Dry   Dry   Crit  Crit  Crit  Crit  Ltd   Ctrl  
  -------------------------------------------------------------------------------------
  WS02003066WSF200        1.00   0.06  0.00  0.00  0.00  0.94  0.00  0.00  0.57  0.00
  WS02006287WS02006284    1.00   0.03  0.01  0.00  0.56  0.40  0.00  0.00  0.70  0.00
  WS02006284WS02006280    1.00   0.03  0.00  0.00  0.00  0.00  0.00  0.97  0.00  0.00
  WS02006280WS02006229    1.00   0.03  0.00  0.00  0.00  0.00  0.00  0.97  0.00  0.00
  WS02006229WS02006228    1.00   0.00  0.00  0.00  0.99  0.00  0.00  0.01  0.00  0.00
  WS02006256WS02006235    1.00   0.00  0.00  0.00  1.00  0.00  0.00  0.00  0.00  0.00
  WS02006253WS02006251    1.00   0.02  0.01  0.00  0.97  0.00  0.00  0.00  0.00  0.00
  WS02006252WS02006251    1.00   0.05  0.00  0.00  0.00  0.00  0.95  0.00  0.00  0.00
  WS02006251WS02006249    1.00   0.00  0.00  0.00  1.00  0.00  0.00  0.00  0.18  0.00
  WS02006249WS02006248    1.00   0.00  0.01  0.00  0.94  0.00  0.04  0.00  0.00  0.00
  WS02006248WS02006247    1.00   0.02  0.00  0.00  0.98  0.00  0.00  0.01  0.07  0.00
  WS02006247WS02006245    1.00   0.02  0.00  0.00  0.97  0.00  0.00  0.01  0.00  0.00
  WS02006245WS02006243    1.00   0.01  0.00  0.00  0.96  0.00  0.00  0.03  0.01  0.00
  WS02006243WS02006242    1.00   0.01  0.00  0.00  0.99  0.00  0.00  0.00  0.17  0.00
  WS02006242WS02006240    1.00   0.00  0.00  0.00  0.99  0.00  0.00  0.00  0.00  0.00
  WS02006240WS02006239    1.00   0.00  0.00  0.00  0.97  0.00  0.00  0.02  0.01  0.00
  WS02006239WS02006238    1.00   0.00  0.00  0.00  1.00  0.00  0.00  0.00  0.00  0.00
  WS02006238WS02006235    1.00   0.00  0.00  0.00  1.00  0.00  0.00  0.00  0.00  0.00
  WS02006235WS02006234    1.00   0.00  0.00  0.00  0.97  0.00  0.03  0.00  0.00  0.00
  WS02006234WS02006232    1.00   0.00  0.00  0.00  1.00  0.00  0.00  0.00  0.00  0.00
  WS02006232WS02006231    1.00   0.00  0.00  0.00  0.99  0.00  0.01  0.00  0.00  0.00
  WS02006231WS02006230    1.00   0.00  0.00  0.00  0.96  0.00  0.04  0.00  0.00  0.00
  WS02006230WS02006229    1.00   0.00  0.00  0.00  0.99  0.00  0.00  0.01  0.01  0.00
  WS02006228WS02006109    1.00   0.00  0.00  0.00  1.00  0.00  0.00  0.00  0.00  0.00
  WS02006116WS02004401    1.00   0.02  0.00  0.00  0.98  0.00  0.00  0.00  0.00  0.00
  WS02006115WS02006116    1.00   0.02  0.00  0.00  0.97  0.00  0.00  0.01  0.01  0.00
  WS02006113WS02006111    1.00   0.01  0.00  0.00  0.00  0.98  0.00  0.00  0.08  0.00
  WS02006112WS02006115    1.00   0.02  0.00  0.00  0.98  0.00  0.00  0.00  0.00  0.00
  WS02006111WS02006112    1.00   0.02  0.00  0.00  0.98  0.00  0.00  0.00  0.97  0.00
  WS02006110WS02006113    1.00   0.01  0.00  0.00  0.99  0.00  0.00  0.00  0.00  0.00
  WS02006109WS02006110    1.00   0.00  0.01  0.00  0.99  0.00  0.00  0.00  0.00  0.00
  WS02004411WS02004412    1.00   0.04  0.00  0.00  0.96  0.00  0.00  0.00  0.00  0.00
  WS02004401WS02004402    1.00   0.02  0.00  0.00  0.98  0.00  0.00  0.00  0.00  0.00
  WS02004413WS02003067    1.00   0.04  0.01  0.00  0.00  0.00  0.95  0.00  0.00  0.00
  WS02004412WS02004413    1.00   0.04  0.00  0.00  0.96  0.00  0.00  0.00  0.00  0.00
  WS02004410WS02004411    1.00   0.04  0.00  0.00  0.96  0.00  0.00  0.00  0.00  0.00
  WS02004409WS02004410    1.00   0.04  0.00  0.00  0.96  0.00  0.00  0.00  0.00  0.00
  WS02004407WS02004409    1.00   0.04  0.00  0.00  0.96  0.00  0.00  0.00  0.81  0.00
  WS02004406WS02004407    1.00   0.00  0.04  0.00  0.96  0.00  0.00  0.00  0.00  0.00
  WS02004405WS02004406    1.00   0.00  0.00  0.00  1.00  0.00  0.00  0.00  0.02  0.00
  WS02004404WS02004405    1.00   0.00  0.00  0.00  1.00  0.00  0.00  0.00  0.00  0.00
  WS02004403WS02004404    1.00   0.00  0.02  0.00  0.98  0.00  0.00  0.00  0.02  0.00
  WS02004402WS02004403    1.00   0.02  0.00  0.00  0.98  0.00  0.00  0.00  0.00  0.00
  WS02004139WS02001211    1.00   0.00  0.00  0.00  1.00  0.00  0.00  0.00  0.00  0.00
  WS02004138WS02004139    1.00   0.00  0.00  0.00  0.99  0.01  0.00  0.00  1.00  0.00
  WS02003067WS02003066    1.00   0.05  0.01  0.00  0.94  0.00  0.00  0.00  0.00  0.00
  WS02001213WS02003059    1.00   0.00  0.00  0.00  0.99  0.00  0.00  0.00  0.00  0.00
  WS02001212WS02001213    1.00   0.00  0.00  0.00  0.92  0.00  0.07  0.00  0.00  0.00
  WS02001211WS02001212    1.00   0.00  0.00  0.00  1.00  0.00  0.00  0.00  0.00  0.00
  WS02003072WS02003073    1.00   0.00  0.00  0.00  0.00  0.00  0.00  1.00  0.00  0.00
  WS02003069WS02003072    1.00   0.00  0.00  0.00  0.99  0.01  0.00  0.00  0.20  0.00
  WS02003060WS02003069    1.00   0.00  0.00  0.00  0.99  0.01  0.00  0.00  0.00  0.00
  WS02003059WS02003060    1.00   0.00  0.00  0.00  1.00  0.00  0.00  0.00  0.01  0.00
  HS02004901HS02004770    1.00   0.03  0.00  0.00  0.97  0.00  0.00  0.00  0.00  0.00
  HS02004876HS02004881    1.00   0.02  0.00  0.00  0.98  0.00  0.00  0.00  0.00  0.00
  HS02004870HS02004876    1.00   0.01  0.00  0.00  0.99  0.00  0.00  0.00  0.95  0.00
  HS02004842HS02004848    1.00   0.00  0.03  0.00  0.97  0.00  0.00  0.00  0.58  0.00
  HS02004837HS02004842    1.00   0.00  0.00  0.00  0.99  0.01  0.00  0.00  0.11  0.00
  HS02004830HS02004837    1.00   0.00  0.00  0.00  1.00  0.00  0.00  0.00  0.99  0.00
  HS02004824HS02004830    1.00   0.00  0.00  0.00  1.00  0.00  0.00  0.00  0.00  0.00
  HS02004817HS02004824    1.00   0.00  0.00  0.00  1.00  0.00  0.00  0.00  1.00  0.00
  HS02004770HS02004777    1.00   0.00  0.03  0.00  0.97  0.00  0.00  0.00  0.03  0.00
  HS02004799HS02004480    1.00   0.00  0.01  0.00  0.96  0.00  0.02  0.00  0.00  0.00
  HS02004792HS02004799    1.00   0.00  0.00  0.00  0.99  0.01  0.00  0.00  0.98  0.00
  HS02004788HS02004792    1.00   0.00  0.00  0.00  0.99  0.01  0.00  0.00  0.98  0.00
  HS02004785HS02004788    1.00   0.00  0.00  0.00  1.00  0.00  0.00  0.00  0.00  0.00
  HS02004777HS02004785    1.00   0.00  0.00  0.00  1.00  0.00  0.00  0.00  0.12  0.00
  HS02004480HS02004478    1.00   0.03  0.00  0.00  0.62  0.00  0.00  0.35  0.00  0.00
  HS02004479HS02004480    1.00   0.02  0.00  0.00  0.98  0.00  0.00  0.00  0.12  0.00
  HS02004862HS02004870    1.00   0.00  0.00  0.00  1.00  0.00  0.00  0.00  0.04  0.00
  HS02004848HS02004852    1.00   0.03  0.00  0.00  0.97  0.00  0.00  0.00  0.77  0.00
  HS02004856HS02004862    1.00   0.00  0.04  0.00  0.96  0.00  0.00  0.00  0.83  0.00
  HS02004852HS02004856    1.00   0.03  0.00  0.00  0.97  0.00  0.00  0.00  0.86  0.00
  HS02004802HS02004478    1.00   0.03  0.00  0.00  0.97  0.00  0.00  0.00  0.03  0.00
  HS02004478WS02006287    1.00   0.04  0.00  0.00  0.70  0.26  0.00  0.00  0.68  0.00
  HS02004817HS02004807    1.00   0.00  0.03  0.00  0.97  0.00  0.00  0.00  0.01  0.00
  HS02004807HS02004802    1.00   0.03  0.00  0.00  0.97  0.00  0.00  0.00  0.00  0.00
  YS02001759YS02001757    1.00   0.00  0.00  0.00  1.00  0.00  0.00  0.00  0.16  0.00
  YS02001762YS02001759    1.00   0.00  0.00  0.00  1.00  0.00  0.00  0.00  0.03  0.00
  YS02001765YS02001762    1.00   0.00  0.00  0.00  1.00  0.00  0.00  0.00  0.14  0.00
  YS02001770YS02001767    1.00   0.00  0.00  0.00  1.00  0.00  0.00  0.00  0.00  0.00
  YS02001774YS02001770    1.00   0.00  0.03  0.00  0.97  0.00  0.00  0.00  0.03  0.00
  YS02001779YS02001774    1.00   0.00  0.00  0.00  1.00  0.00  0.00  0.00  0.18  0.00
  YS02001649YS02001757    1.00   0.00  0.00  0.00  1.00  0.00  0.00  0.00  0.16  0.00
  YS02001767YS02001765    1.00   0.00  0.00  0.00  1.00  0.00  0.00  0.00  0.00  0.00
  YS02006561YS02001783    1.00   0.04  0.00  0.00  0.18  0.78  0.00  0.00  0.54  0.00
  YS02001783YS02001784    1.00   0.00  0.04  0.00  0.96  0.00  0.00  0.00  0.00  0.00
  YS02001784YS02001785    1.00   0.00  0.00  0.00  1.00  0.00  0.00  0.00  0.17  0.00
  YS02001788YS02001790    1.00   0.00  0.00  0.00  0.14  0.86  0.00  0.00  0.52  0.00
  YS02001790YS02001791    1.00   0.00  0.00  0.00  0.12  0.88  0.00  0.00  0.63  0.00
  YS02001791YS02001793    1.00   0.00  0.00  0.00  0.13  0.87  0.00  0.00  0.01  0.00
  YS02001910YS02001907    1.00   0.00  0.00  0.00  0.98  0.00  0.00  0.02  0.12  0.00
  YS02001786YS02001788    1.00   0.00  0.00  0.00  0.13  0.87  0.00  0.00  0.00  0.00
  YS02001915YS02001910    1.00   0.00  0.00  0.00  0.99  0.01  0.00  0.00  0.16  0.00
  YS02001918YS02001915    1.00   0.00  0.01  0.00  0.99  0.00  0.00  0.00  0.60  0.00
  YS02001923YS02001920    1.00   0.00  0.00  0.00  1.00  0.00  0.00  0.00  1.00  0.00
  YS02001926YS02001923    1.00   0.00  0.02  0.00  0.00  0.00  0.98  0.00  0.00  0.00
  YS02001929YS02001926    1.00   0.00  0.03  0.00  0.97  0.00  0.00  0.00  0.87  0.00
  YS02001920YS02001918    1.00   0.00  0.01  0.00  0.99  0.00  0.00  0.00  0.00  0.00
  YS02001629YS02163301    1.00   0.04  0.00  0.00  0.96  0.00  0.00  0.00  0.00  0.00
  YS02001619YS02001622    1.00   0.03  0.00  0.00  0.97  0.00  0.00  0.00  0.00  0.00
  YS02001622YS02001625    1.00   0.03  0.00  0.00  0.97  0.00  0.00  0.00  0.04  0.00
  YS02001625YS02001629    1.00   0.03  0.01  0.00  0.95  0.00  0.01  0.00  0.00  0.00
  YS02163301YS02001633    1.00   0.00  0.03  0.00  0.97  0.00  0.00  0.00  0.00  0.00
  YS02163601YS02164001    1.00   0.00  0.02  0.00  0.98  0.00  0.00  0.00  0.00  0.00
  YS02164001YS02001641    1.00   0.01  0.01  0.00  0.98  0.00  0.00  0.00  0.06  0.00
  YS02001641YS02001644    1.00   0.00  0.01  0.00  0.99  0.00  0.00  0.00  0.00  0.00
  YS02001647YS02001649    1.00   0.00  0.04  0.00  0.96  0.00  0.00  0.00  0.01  0.00
  YS02006553YS02006556    1.00   0.01  0.00  0.00  0.99  0.00  0.00  0.00  0.03  0.00
  YS02006556YS02006558    1.00   0.00  0.00  0.00  1.00  0.00  0.00  0.00  0.00  0.00
  YSB6556YSB1171          1.00   0.02  0.01  0.00  0.97  0.00  0.00  0.00  0.00  0.00
  YS02001907YS02006553    1.00   0.00  0.01  0.00  0.98  0.00  0.00  0.00  0.00  0.00
  YS02006558YS02006561    1.00   0.04  0.00  0.00  0.00  0.96  0.00  0.00  0.52  0.00
  YS02001633YS02163601    1.00   0.00  0.01  0.00  0.99  0.00  0.00  0.00  0.15  0.00
  YS02001644YS02001647    1.00   0.00  0.04  0.00  0.96  0.00  0.00  0.00  0.00  0.00
  YS02001745YS02001748    1.00   0.00  0.00  0.00  0.91  0.01  0.00  0.08  0.06  0.00
  YS02001748YS02001751    1.00   0.00  0.00  0.00  0.98  0.02  0.00  0.00  0.14  0.00
  YS02001751YS02001754    1.00   0.00  0.00  0.00  0.96  0.00  0.00  0.04  0.02  0.00
  YS02001754YS02001757    1.00   0.00  0.00  0.00  0.99  0.01  0.00  0.00  0.18  0.00
  YS02001882YS02001884    1.00   0.03  0.00  0.00  0.96  0.00  0.00  0.00  0.00  0.00
  YS02001884YS02001887    1.00   0.02  0.01  0.00  0.97  0.00  0.00  0.00  0.00  0.00
  YS02001890YS02001895    1.00   0.00  0.03  0.00  0.96  0.00  0.00  0.00  0.00  0.00
  YS02001895YS02001898    1.00   0.04  0.00  0.00  0.96  0.00  0.00  0.00  0.00  0.00
  YS02001898YS02001901    1.00   0.04  0.00  0.00  0.96  0.00  0.00  0.00  0.01  0.00
  YS02001901YS02001904    1.00   0.04  0.00  0.00  0.96  0.00  0.00  0.00  0.00  0.00
  YS02001904YS02001907    1.00   0.00  0.03  0.00  0.96  0.00  0.00  0.00  0.00  0.00
  YS02001887YS02001890    1.00   0.00  0.00  0.00  0.98  0.00  0.01  0.00  0.00  0.00
  YS02001652YS02001649    1.00   0.00  0.00  0.00  1.00  0.00  0.00  0.00  0.16  0.00
  YS02001655YS02001652    1.00   0.00  0.00  0.00  0.96  0.00  0.00  0.04  0.02  0.00
  YS02001658YS02001655    1.00   0.00  0.03  0.00  0.95  0.02  0.00  0.00  0.05  0.00
  YS02001661YS02001658    1.00   0.03  0.00  0.00  0.91  0.06  0.00  0.00  0.06  0.00
  YS02001664YS02001661    1.00   0.03  0.00  0.00  0.84  0.13  0.00  0.00  0.31  0.00
  YSB1154YSB6556          1.00   0.03  0.00  0.00  0.97  0.00  0.00  0.00  0.02  0.00
  YSB1174YSB1171          1.00   0.02  0.01  0.00  0.97  0.00  0.00  0.00  0.00  0.00
  YSB1171HS02004479       1.00   0.02  0.00  0.00  0.98  0.00  0.00  0.00  0.10  0.00
  HS02004881HS02006253    1.00   0.02  0.00  0.00  0.94  0.00  0.00  0.04  0.78  0.00
  YS02001793JiankangQianchi    1.00   0.00  0.00  0.00  0.30  0.70  0.00  0.00  0.13  0.00
  YS02001757CaochengTiaoxuchi    1.00   0.00  0.05  0.00  0.92  0.03  0.00  0.00  0.00  0.00
  WSF200WS02003060        1.00   0.00  0.06  0.00  0.94  0.00  0.00  0.00  0.01  0.00
  1                       1.00   0.00  0.00  0.00  0.00  1.00  0.00  0.00  0.20  0.00
  2                       1.00   0.06  0.00  0.00  0.00  0.94  0.00  0.00  0.00  0.00
  3                       1.00   0.03  0.00  0.00  0.00  0.97  0.00  0.00  0.00  0.00
  4                       1.00   1.00  0.00  0.00  0.00  0.00  0.00  0.00  0.00  0.00
  
  
  *************************
  Conduit Surcharge Summary
  *************************
  
  ----------------------------------------------------------------------------
                                                           Hours        Hours 
                         --------- Hours Full --------   Above Full   Capacity
  Conduit                Both Ends  Upstream  Dnstream   Normal Flow   Limited
  ----------------------------------------------------------------------------
  WS02006229WS02006228        6.09      6.10      6.09      6.20         6.09
  WS02006256WS02006235        6.28      6.28      7.83      0.59         0.01
  WS02006253WS02006251        0.01      0.01      0.60      0.01         0.01
  WS02006252WS02006251        6.13      6.13      6.14      6.14         0.01
  WS02006251WS02006249        0.01      0.01      0.01      6.12         0.01
  WS02006249WS02006248        0.01      0.01      0.01      6.14         0.01
  WS02006248WS02006247        0.01      0.01      0.01      0.01         0.01
  WS02006247WS02006245        0.01      0.57      0.01      6.13         0.01
  WS02006245WS02006243        0.10      0.10      1.30      0.05         0.01
  WS02006243WS02006242        1.40      1.40      6.06      0.01         0.01
  WS02006242WS02006240        2.08      2.08      6.06      6.09         0.01
  WS02006240WS02006239        3.14      3.14      3.55      0.01         0.01
  WS02006239WS02006238        6.06      6.06      6.07      0.01         0.01
  WS02006238WS02006235        6.07      6.07      6.07      0.01         0.01
  WS02006235WS02006234        1.70      1.70      6.06      6.30         0.01
  WS02006234WS02006232        3.05      3.05      6.07      0.01         0.01
  WS02006232WS02006231        0.90      0.90      6.07      0.01         0.01
  WS02006231WS02006230        0.20      0.20      1.28      6.26         0.01
  WS02006230WS02006229        6.16      6.16      6.16      6.33         6.16
  WS02006228WS02006109        6.09      6.13      6.09      6.22         6.09
  WS02006112WS02006115        0.01      0.01      1.51      0.01         0.01
  WS02006111WS02006112        0.01      0.01      6.13      0.01         0.01
  WS02006110WS02006113        0.01      0.01      6.10      0.01         0.01
  WS02006109WS02006110        1.36      1.36      6.13      1.37         0.01
  WS02004405WS02004406        0.01      0.01      0.01      1.43         0.01
  WS02004404WS02004405        0.01      0.14      0.01      6.23         0.01
  WS02004403WS02004404        0.01      0.01      0.14      0.01         0.01
  WS02003072WS02003073        0.01      0.01      0.01      6.04         0.01
  YS02001759YS02001757        5.96      5.96      6.03      0.01         0.01
  YS02001762YS02001759        5.94      5.94      5.96      0.01         0.01
  YS02001765YS02001762        5.90      5.90      5.94      0.01         0.01
  YS02001770YS02001767        5.73      5.74      5.75      0.01         0.95
  YS02001774YS02001770        5.72      5.72      5.93      0.01         0.01
  YS02001779YS02001774        5.54      5.54      5.93      0.01         0.01
  YS02001649YS02001757        5.94      5.94      6.03      0.01         0.01
  YS02001767YS02001765        5.75      5.75      5.90      0.01         0.01
  YS02006561YS02001783        0.01      0.01      0.23      0.01         0.01
  YS02001783YS02001784        0.23      0.23      0.27      0.49         0.02
  YS02001784YS02001785        0.21      0.27      0.21      1.90         0.20
  YS02001788YS02001790        0.17      0.17      0.45      0.01         0.01
  YS02001790YS02001791        0.45      0.45      0.51      0.01         0.01
  YS02001791YS02001793        0.51      0.51      0.73      0.01         0.01
  YS02001910YS02001907        0.01      0.01      1.20      0.01         0.01
  YS02001786YS02001788        0.17      0.21      0.17      1.50         0.16
  YS02001629YS02163301        5.70      5.70      5.75      0.01         0.01
  YS02001619YS02001622        4.77      4.77      4.97      0.01         0.02
  YS02001622YS02001625        4.97      4.97      5.68      0.01         0.01
  YS02001625YS02001629        4.81      4.81      5.68      0.01         0.01
  YS02163301YS02001633        5.75      5.75      5.92      0.01         0.01
  YS02163601YS02164001        5.90      5.90      5.95      0.01         0.01
  YS02164001YS02001641        5.90      5.90      5.92      0.01         0.03
  YS02001641YS02001644        5.92      5.92      5.92      0.66         1.26
  YS02001647YS02001649        5.63      5.63      5.94      0.01         0.01
  YS02006553YS02006556        0.21      0.21      1.29      0.01         0.01
  YS02006556YS02006558        0.86      0.86      1.41      0.01         0.01
  YS02001907YS02006553        1.92      1.92      2.14      0.01         0.01
  YS02006558YS02006561        0.01      0.08      0.01      1.76         0.01
  YS02001633YS02163601        5.87      5.87      5.95      0.01         0.01
  YS02001644YS02001647        5.63      5.63      5.92      0.01         0.01
  YS02001745YS02001748        0.01      0.01      3.55      0.01         0.01
  YS02001748YS02001751        4.00      4.00      4.96      0.01         0.01
  YS02001751YS02001754        4.96      4.96      5.55      0.01         0.01
  YS02001754YS02001757        5.61      5.61      6.03      0.01         0.01
  YS02001904YS02001907        0.01      0.01      1.34      0.01         0.01
  YS02001652YS02001649        5.65      5.65      5.94      0.01         0.01
  YS02001655YS02001652        5.09      5.09      5.60      0.01         0.01
  YS02001658YS02001655        3.62      3.62      5.09      0.01         0.01
  YS02001661YS02001658        0.14      0.14      3.62      0.01         0.01
  YS02001664YS02001661        0.01      0.01      0.71      0.01         0.01
  YS02001793JiankangQianchi        0.68      0.68      1.63      0.01         0.01
  YS02001757CaochengTiaoxuchi        4.11      4.11      6.03      0.01         0.01
  3                           0.01      0.01      0.01      0.01         0.01
  
  
  ***************
  Pumping Summary
  ***************
  
  ---------------------------------------------------------------------------------------------------------
                                                  Min       Avg       Max     Total     Power    % Time Off
                        Percent   Number of      Flow      Flow      Flow    Volume     Usage    Pump Curve
  Pump                 Utilized   Start-Ups       LPS       LPS       LPS  10^6 ltr     Kw-hr    Low   High
  ---------------------------------------------------------------------------------------------------------
  CC-Pump-1               79.00           1      0.00    198.82    200.00     4.427      9.70    0.0   11.5
  CC-Pump-2               79.00           1      0.00    198.82    200.00     4.427      9.70    0.0   11.5
  JK-Pump-1              100.00           1      0.00    225.07    300.00     5.037     80.08    0.0    0.0
  JK-Pump-2              100.00           1      0.00    225.07    300.00     5.037     80.08    0.0    0.0
  XR-Pump-1              100.00           1      0.00     95.00     95.00     2.679     25.77    0.0    0.0
  XR-Pump-2              100.00           1      0.00     95.00     95.00     2.679     25.77    0.0    0.0
  XR-Pump-3                0.00           0      0.00      0.00      0.00     0.000      0.00    0.0    0.0
  XR-Pump-4              100.00           1      0.00     95.00     95.00     2.679     25.77    0.0    0.0
  

  Analysis begun on:  Tue Jan  4 14:00:47 2022
  Analysis ended on:  Tue Jan  4 14:00:51 2022
  Total elapsed time: 00:00:04