
  EPA STORM WATER MANAGEMENT MODEL - VERSION 5.1 (Build 5.3.0.dev0)
  --------------------------------------------------------------

  WARNING 04: minimum elevation drop used for Conduit WS02004404WS02004405
  WARNING 03: negative offset ignored for Link YS02001904YS02001907
  
  *********************************************************
  NOTE: The summary statistics displayed in this report are
  based on results found at every computational time step,  
  not just on results from each reporting time step.
  *********************************************************
  
  ****************
  Analysis Options
  ****************
  Flow Units ............... LPS
  Process Models:
    Rainfall/Runoff ........ YES
    RDII ................... NO
    Snowmelt ............... NO
    Groundwater ............ NO
    Flow Routing ........... YES
    Ponding Allowed ........ NO
    Water Quality .......... NO
  Infiltration Method ...... HORTON
  Flow Routing Method ...... DYNWAVE
  Surcharge Method ......... EXTRAN
  Starting Date ............ 08/28/2015 08:00:00
  Ending Date .............. 08/28/2015 15:50:00
  Antecedent Dry Days ...... 8.0
  Report Time Step ......... 00:01:00
  Wet Time Step ............ 00:01:00
  Dry Time Step ............ 00:01:00
  Routing Time Step ........ 5.00 sec
  Variable Time Step ....... YES
  Maximum Trials ........... 8
  Number of Threads ........ 4
  Head Tolerance ........... 0.001500 m
  
  
  **************************        Volume         Depth
  Runoff Quantity Continuity     hectare-m            mm
  **************************     ---------       -------
  Total Precipitation ......         3.868         8.469
  Evaporation Loss .........         0.000         0.000
  Infiltration Loss ........         0.985         2.157
  Surface Runoff ...........         1.916         4.194
  Final Storage ............         0.968         2.119
  Continuity Error (%) .....        -0.017
  
  
  **************************        Volume        Volume
  Flow Routing Continuity        hectare-m      10^6 ltr
  **************************     ---------     ---------
  Dry Weather Inflow .......         0.616         6.165
  Wet Weather Inflow .......         1.915        19.148
  Groundwater Inflow .......         0.000         0.000
  RDII Inflow ..............         0.000         0.000
  External Inflow ..........         0.102         1.024
  External Outflow .........         1.705        17.051
  Flooding Loss ............         0.561         5.607
  Evaporation Loss .........         0.000         0.000
  Exfiltration Loss ........         0.000         0.000
  Initial Stored Volume ....         0.076         0.761
  Final Stored Volume ......         0.576         5.759
  Continuity Error (%) .....        -4.871
  
  
  *************************
  Highest Continuity Errors
  *************************
  Node YS02001774 (36.18%)
  Node JK-storage (-21.00%)
  Node HS02004842 (20.89%)
  Node YS02001884 (14.53%)
  Node YSB1171 (4.66%)
  
  
  ***************************
  Time-Step Critical Elements
  ***************************
  Link 3 (40.90%)
  Link WS02006252WS02006251 (36.59%)
  Link WS02006229WS02006228 (8.40%)
  Link YS02006556YS02006558 (4.78%)
  Link WS02006280WS02006229 (3.01%)
  
  
  ********************************
  Highest Flow Instability Indexes
  ********************************
  Link WS02006113WS02006111 (48)
  Link YS02001774YS02001770 (28)
  Link YS02001779YS02001774 (26)
  Link YS02163301YS02001633 (26)
  Link YS02001619YS02001622 (26)
  
  
  *************************
  Routing Time Step Summary
  *************************
  Minimum Time Step           :     0.50 sec
  Average Time Step           :     0.95 sec
  Maximum Time Step           :     5.00 sec
  Percent in Steady State     :    -0.00
  Average Iterations per Step :     3.93
  Percent Not Converging      :    15.12
  
  
  ***************************
  Subcatchment Runoff Summary
  ***************************
  
  ------------------------------------------------------------------------------------------------------------------------------
                            Total      Total      Total      Total     Imperv       Perv      Total       Total     Peak  Runoff
                           Precip      Runon       Evap      Infil     Runoff     Runoff     Runoff      Runoff   Runoff   Coeff
  Subcatchment                 mm         mm         mm         mm         mm         mm         mm    10^6 ltr      LPS
  ------------------------------------------------------------------------------------------------------------------------------
  sub0                       8.47       0.00       0.00       0.59       6.61       0.00       6.61        0.01     1.03   0.781
  sub1                       8.47       0.00       0.00       0.93       6.28       0.00       6.28        0.04     7.43   0.741
  sub2                       8.47       0.00       0.00       3.13       4.43       0.00       4.43        0.04     7.08   0.523
  sub3                       8.47       0.00       0.00       3.13       4.39       0.00       4.39        0.10    15.91   0.518
  sub4                       8.47       0.00       0.00       0.93       6.13       0.00       6.13        0.13    19.23   0.724
  sub5                       8.47       0.00       0.00       0.59       6.56       0.00       6.56        0.07    13.22   0.775
  sub7                       8.47       0.00       0.00       0.76       6.45       0.00       6.45        0.02     4.04   0.762
  sub8                       8.47       0.00       0.00       0.76       6.44       0.00       6.44        0.04     7.54   0.761
  sub9                       8.47       0.00       0.00       0.76       6.44       0.00       6.44        0.03     5.65   0.760
  sub10                      8.47       0.00       0.00       0.68       6.50       0.00       6.50        0.07    12.87   0.767
  sub11                      8.47       0.00       0.00       0.68       6.52       0.00       6.52        0.08    13.93   0.769
  sub12                      8.47       0.00       0.00       1.10       6.18       0.00       6.18        0.05    10.23   0.730
  sub14                      8.47       0.00       0.00       0.76       6.44       0.00       6.44        0.06    11.15   0.760
  sub15                      8.47       0.00       0.00       2.54       4.95       0.00       4.95        0.09    15.40   0.584
  sub16                      8.47       0.00       0.00       2.79       4.76       0.00       4.76        0.05     9.37   0.561
  sub17                      8.47       0.00       0.00       2.71       4.82       0.00       4.82        0.04     7.75   0.570
  sub22                      8.47       0.00       0.00       3.64       4.04       0.00       4.04        0.26    47.08   0.477
  sub23                      8.47       0.00       0.00       3.13       4.46       0.00       4.46        0.21    39.46   0.527
  sub60                      8.47       0.00       0.00       1.02       4.75       0.00       4.75        1.44   149.28   0.561
  sub61                      8.47       0.00       0.00       1.44       4.95       0.00       4.95        1.53   180.35   0.585
  sub62                      8.47       0.00       0.00       0.68       5.35       0.00       5.35        1.64   187.08   0.631
  sub63                      8.47       0.00       0.00       2.46       4.37       0.00       4.37        1.32   164.01   0.516
  sub64                      8.47       0.00       0.00       1.27       4.55       0.00       4.55        1.38   141.99   0.537
  sub65                      8.47       0.00       0.00       1.10       4.62       0.00       4.62        1.42   144.28   0.545
  sub66                      8.47       0.00       0.00       2.46       3.94       0.00       3.94        1.21   129.20   0.465
  sub67                      8.47       0.00       0.00       0.68       5.75       0.00       5.75        1.78   226.25   0.679
  sub68                      8.47       0.00       0.00       1.19       5.24       0.00       5.24        1.61   196.27   0.618
  sub69                      8.47       0.00       0.00       1.27       5.53       0.00       5.53        1.29   176.57   0.653
  sub70                      8.47       5.64       0.00       4.80       7.11       0.00       7.11        1.63   167.69   0.504
  sub71                      8.47       0.00       0.00       0.68       5.16       0.00       5.16        1.22   132.38   0.610
  sub72                      8.47       0.00       0.00       0.59       3.87       0.00       3.87        0.79    64.98   0.457
  sub73                      8.47       6.92       0.00       5.23       7.51       0.00       7.51        1.76   149.38   0.488
  sub74                      8.47       0.00       0.00       6.35       1.66       0.00       1.66        0.66    93.55   0.196
  
  
  ******************
  Node Depth Summary
  ******************
  
  ---------------------------------------------------------------------------------
                                 Average  Maximum  Maximum  Time of Max    Reported
                                   Depth    Depth      HGL   Occurrence   Max Depth
  Node                 Type       Meters   Meters   Meters  days hr:min      Meters
  ---------------------------------------------------------------------------------
  WS02001211           JUNCTION     0.67     0.79     5.63     0  02:36        0.79
  WS02001212           JUNCTION     0.39     0.51     5.57     0  02:35        0.51
  WS02001213           JUNCTION     0.61     0.76     5.52     0  02:35        0.76
  WS02003069           JUNCTION     0.42     0.58     5.17     0  02:34        0.58
  WS02003072           JUNCTION     0.48     0.64     5.01     0  02:34        0.64
  WS02003073           JUNCTION     0.29     0.39     4.46     0  02:35        0.39
  WS02003060           JUNCTION     0.37     0.51     5.44     0  02:33        0.51
  WS02003066           JUNCTION     0.21     0.30     5.86     0  02:26        0.30
  WS02003059           JUNCTION     0.66     0.81     5.50     0  02:34        0.81
  WS02003067           JUNCTION     0.54     0.71     6.03     0  02:26        0.71
  WS02004401           JUNCTION     0.63     0.87     6.87     0  02:23        0.87
  WS02004402           JUNCTION     0.66     0.89     6.85     0  02:23        0.89
  WS02004403           JUNCTION     0.68     0.91     6.84     0  02:24        0.91
  WS02004404           JUNCTION     0.76     0.98     6.83     0  02:24        0.98
  WS02004406           JUNCTION     0.77     0.97     6.80     0  02:24        0.97
  WS02004409           JUNCTION     0.44     0.68     6.45     0  02:24        0.68
  WS02004410           JUNCTION     0.46     0.70     6.42     0  02:25        0.70
  WS02004411           JUNCTION     0.48     0.70     6.38     0  02:25        0.70
  WS02004412           JUNCTION     0.50     0.71     6.35     0  02:25        0.71
  WS02004413           JUNCTION     0.66     0.87     6.34     0  02:26        0.87
  WS02004405           JUNCTION     0.76     0.97     6.82     0  02:24        0.97
  WS02006109           JUNCTION     0.71     0.99     7.61     0  02:20        0.99
  WS02006110           JUNCTION     0.71     0.93     7.52     0  02:20        0.93
  WS02006111           JUNCTION     0.20     0.29     7.00     0  02:20        0.29
  WS02006112           JUNCTION     0.79     1.09     6.97     0  02:20        1.07
  WS02006113           JUNCTION     0.31     0.46     7.36     0  02:21        0.46
  WS02006115           JUNCTION     0.52     0.77     6.91     0  02:23        0.77
  WS02006116           JUNCTION     0.60     0.85     6.89     0  02:23        0.85
  WS02006230           JUNCTION     0.66     1.04     7.79     0  02:20        1.04
  WS02006231           JUNCTION     0.43     0.71     7.84     0  02:20        0.71
  WS02006232           JUNCTION     0.56     0.85     7.89     0  02:20        0.85
  WS02006234           JUNCTION     0.48     0.79     7.95     0  02:20        0.79
  WS02006235           JUNCTION     0.51     0.82     7.99     0  02:20        0.82
  WS02006238           JUNCTION     0.53     0.85     7.99     0  02:20        0.85
  WS02006240           JUNCTION     0.42     0.77     8.06     0  02:20        0.77
  WS02006242           JUNCTION     0.47     0.83     8.10     0  02:20        0.83
  WS02006243           JUNCTION     0.35     0.72     8.14     0  02:20        0.72
  WS02006245           JUNCTION     0.33     0.69     8.17     0  02:20        0.69
  WS02006247           JUNCTION     0.34     0.69     8.19     0  02:20        0.69
  WS02006248           JUNCTION     0.30     0.62     8.21     0  02:20        0.62
  WS02006249           JUNCTION     0.33     0.63     8.23     0  02:20        0.63
  WS02006239           JUNCTION     0.48     0.82     8.03     0  02:20        0.82
  WS02006251           JUNCTION     0.32     0.67     8.34     0  02:20        0.67
  WS02006252           JUNCTION     0.29     0.59     8.84     0  07:36        0.59
  WS02006253           JUNCTION     0.35     0.69     8.34     0  02:20        0.69
  WS02006256           JUNCTION     1.01     1.21     8.15     0  02:20        1.21
  WS02004138           JUNCTION     0.16     0.19     7.44     0  02:38        0.19
  WS02004407           JUNCTION     0.20     0.30     6.62     0  02:24        0.30
  WS02006228           JUNCTION     0.70     1.03     7.68     0  02:20        1.03
  WS02006229           JUNCTION     0.67     1.03     7.72     0  02:20        1.03
  WS02006280           JUNCTION     0.06     0.14     8.41     0  02:27        0.14
  WS02006284           JUNCTION     0.35     0.48     8.88     0  02:27        0.48
  WS02006287           JUNCTION     0.09     0.21     9.16     0  02:27        0.21
  WSF200               JUNCTION     0.19     0.32     5.55     0  02:27        0.32
  HS02004901           JUNCTION     0.12     0.22    10.04     0  02:25        0.22
  HS02004881           JUNCTION     0.01     0.02     9.05     0  02:26        0.02
  HS02004876           JUNCTION     0.04     0.10     9.13     0  02:25        0.10
  HS02004870           JUNCTION     0.01     0.04     9.33     0  02:26        0.04
  HS02004862           JUNCTION     0.02     0.05     9.43     0  02:27        0.05
  HS02004856           JUNCTION     0.08     0.11     9.53     0  02:26        0.11
  HS02004852           JUNCTION     0.01     0.03     9.54     0  02:27        0.03
  HS02004848           JUNCTION     0.01     0.03     9.63     0  02:26        0.03
  HS02004842           JUNCTION     0.33     0.36     9.63     0  02:26        0.36
  HS02004837           JUNCTION     0.03     0.05     9.63     0  02:26        0.05
  HS02004830           JUNCTION     0.04     0.06     9.53     0  02:26        0.06
  HS02004824           JUNCTION     0.02     0.04     9.45     0  02:27        0.04
  HS02004817           JUNCTION     0.43     0.53     9.37     0  02:27        0.53
  HS02004807           JUNCTION     0.12     0.20     9.37     0  02:27        0.20
  HS02004802           JUNCTION     0.15     0.24     9.37     0  02:27        0.24
  HS02004799           JUNCTION     0.11     0.25     9.46     0  02:25        0.25
  HS02004792           JUNCTION     0.03     0.09     9.62     0  02:25        0.09
  HS02004788           JUNCTION     0.02     0.07     9.97     0  02:26        0.07
  HS02004785           JUNCTION     0.04     0.13    10.03     0  02:25        0.13
  HS02004777           JUNCTION     0.14     0.24    10.04     0  02:25        0.24
  HS02004770           JUNCTION     0.11     0.21    10.04     0  02:25        0.21
  HS02004480           JUNCTION     0.07     0.19     9.43     0  02:26        0.19
  HS02004479           JUNCTION     0.11     0.23     9.43     0  02:25        0.23
  HS02004478           JUNCTION     0.05     0.12     9.35     0  02:26        0.12
  YS02001745           JUNCTION     0.62     0.86     8.37     0  03:44        0.85
  YS02001748           JUNCTION     0.98     1.31     8.39     0  03:46        1.29
  YS02001751           JUNCTION     1.16     2.15     9.03     0  02:56        1.50
  YS02001754           JUNCTION     1.41     2.06     8.67     0  02:56        1.78
  YS02001762           JUNCTION     1.61     2.02     8.42     0  03:42        2.00
  YS02001765           JUNCTION     1.56     2.02     8.47     0  03:07        1.95
  YS02001767           JUNCTION     1.53     2.00     8.49     0  03:07        1.90
  YS02001770           JUNCTION     1.52     1.95     8.44     0  03:07        1.89
  YS02001774           JUNCTION     1.59     2.03     8.45     0  03:07        1.95
  YS02001779           JUNCTION     1.34     1.68     8.37     0  03:05        1.68
  YS02001882           JUNCTION     0.33     0.64     7.35     0  03:02        0.63
  YS02001884           JUNCTION     0.43     0.73     7.35     0  03:02        0.73
  YS02001759           JUNCTION     1.64     2.06     8.42     0  03:40        2.03
  YS02001887           JUNCTION     0.50     0.81     7.35     0  03:02        0.81
  YS02001890           JUNCTION     0.53     0.84     7.34     0  03:01        0.84
  YS02001898           JUNCTION     0.30     0.60     7.33     0  03:01        0.59
  YS02001901           JUNCTION     0.42     0.72     7.33     0  03:01        0.72
  YS02001904           JUNCTION     0.40     0.70     7.33     0  03:03        0.70
  YS02001907           JUNCTION     0.73     1.05     7.34     0  03:03        1.05
  YS02001910           JUNCTION     0.52     0.83     7.33     0  03:03        0.82
  YS02001915           JUNCTION     0.32     0.61     7.33     0  03:01        0.61
  YS02001918           JUNCTION     0.10     0.26     7.32     0  03:02        0.26
  YS02001619           JUNCTION     1.12     1.61     8.54     0  03:06        1.45
  YS02001629           JUNCTION     1.47     1.85     8.40     0  03:09        1.82
  YS02001641           JUNCTION     1.58     1.93     8.37     0  06:33        1.93
  YS02001644           JUNCTION     1.58     1.92     8.35     0  03:27        1.92
  YS02001652           JUNCTION     1.42     2.12     8.71     0  02:52        1.90
  YS02001655           JUNCTION     1.19     2.09     8.94     0  02:52        1.72
  YS02001920           JUNCTION     0.20     0.33     7.34     0  03:02        0.33
  YS02001923           JUNCTION     0.08     0.12     7.38     0  03:02        0.12
  YS02001926           JUNCTION     0.17     0.23     7.67     0  03:02        0.23
  YS02001929           JUNCTION     0.08     0.12     7.81     0  03:01        0.12
  YS02001658           JUNCTION     0.93     2.09     9.23     0  03:03        1.49
  YS02001661           JUNCTION     0.72     1.67     9.08     0  03:38        1.28
  YS02001664           JUNCTION     0.31     0.56     8.49     0  04:08        0.56
  YS02001622           JUNCTION     1.14     1.62     8.52     0  03:07        1.47
  YS02001633           JUNCTION     1.56     1.94     8.39     0  07:03        1.91
  YS02001649           JUNCTION     1.62     2.05     8.44     0  03:38        2.04
  YS02001757           JUNCTION     1.74     2.16     8.42     0  03:41        2.14
  YS02001895           JUNCTION     0.30     0.59     7.34     0  03:01        0.59
  YS02001625           JUNCTION     1.43     1.78     8.38     0  03:11        1.78
  YS02163301           JUNCTION     1.50     1.88     8.40     0  03:11        1.86
  YS02163601           JUNCTION     1.61     1.98     8.38     0  07:03        1.97
  YS02164001           JUNCTION     1.56     1.92     8.37     0  07:03        1.90
  YS02001647           JUNCTION     1.41     1.80     8.41     0  03:53        1.78
  YSB1154              JUNCTION     0.24     0.38     9.43     0  02:26        0.38
  YSB6556              JUNCTION     0.14     0.26     9.43     0  02:26        0.26
  YSB1174              JUNCTION     0.20     0.32     9.43     0  02:26        0.32
  YSB1171              JUNCTION     0.39     0.53     9.43     0  02:25        0.53
  YS02006553           JUNCTION     0.73     1.05     7.34     0  03:01        1.05
  YS02006561           JUNCTION     0.16     0.34     7.00     0  03:02        0.34
  YS02006556           JUNCTION     0.70     1.02     7.33     0  03:05        1.02
  YS02006558           JUNCTION     0.75     1.06     7.33     0  03:04        1.04
  YS02001783           JUNCTION     0.33     0.98     7.12     0  02:58        0.91
  YS02001784           JUNCTION     0.37     1.07     7.14     0  02:55        0.93
  YS02001786           JUNCTION     0.34     0.91     6.94     0  02:51        0.91
  YS02001788           JUNCTION     0.29     0.93     6.91     0  02:42        0.88
  YS02001790           JUNCTION     0.40     1.48     7.13     0  02:40        1.13
  YS02001791           JUNCTION     0.39     1.30     6.77     0  02:40        1.21
  YS02001793           JUNCTION     0.56     1.81     6.64     0  02:42        1.79
  WS02004139           JUNCTION     0.61     0.74     5.65     0  02:37        0.74
  WSC                  OUTFALL      0.29     0.39     1.06     0  02:35        0.39
  3                    OUTFALL      0.09     0.21     6.21     0  02:20        0.21
  4                    OUTFALL      0.02     0.13     7.13     0  02:20        0.13
  5                    OUTFALL      0.00     0.00     5.00     0  00:00        0.00
  JK-storage           STORAGE      2.05     5.80     6.60     0  02:40        5.80
  CC-storage           STORAGE      0.99     1.37     8.37     0  06:44        1.37
  XR-storage           STORAGE      7.36     7.72     5.72     0  02:21        7.72
  
  
  *******************
  Node Inflow Summary
  *******************
  
  -------------------------------------------------------------------------------------------------
                                  Maximum  Maximum                  Lateral       Total        Flow
                                  Lateral    Total  Time of Max      Inflow      Inflow     Balance
                                   Inflow   Inflow   Occurrence      Volume      Volume       Error
  Node                 Type           LPS      LPS  days hr:min    10^6 ltr    10^6 ltr     Percent
  -------------------------------------------------------------------------------------------------
  WS02001211           JUNCTION      7.35   389.19     0  02:45       0.207        7.27       0.521
  WS02001212           JUNCTION      0.00   390.95     0  02:45           0        7.23       0.289
  WS02001213           JUNCTION      0.00   392.70     0  02:44           0        7.21       0.340
  WS02003069           JUNCTION      0.32   933.36     0  02:34     0.00902        13.9       0.248
  WS02003072           JUNCTION      0.00   933.38     0  02:34           0        13.8       0.295
  WS02003073           JUNCTION      1.82   935.40     0  02:35      0.0514        13.8       0.339
  WS02003060           JUNCTION     16.53   932.77     0  02:33       0.466        13.9       0.233
  WS02003066           JUNCTION      0.00   559.13     0  02:26           0        6.29       0.082
  WS02003059           JUNCTION      0.00   395.59     0  02:44           0        7.19       0.568
  WS02003067           JUNCTION      0.00   559.12     0  02:26           0         6.3       0.165
  WS02004401           JUNCTION      0.00   560.83     0  02:23           0        6.56       0.369
  WS02004402           JUNCTION      0.00   560.31     0  02:23           0        6.54       0.344
  WS02004403           JUNCTION      0.00   560.15     0  02:24           0        6.52       0.309
  WS02004404           JUNCTION      0.16   560.32     0  02:24     0.00457         6.5       0.229
  WS02004406           JUNCTION      0.00   560.21     0  02:24           0        6.46       0.559
  WS02004409           JUNCTION      0.00   560.06     0  02:24           0        6.42       0.307
  WS02004410           JUNCTION      0.00   559.75     0  02:24           0         6.4       0.340
  WS02004411           JUNCTION      0.00   559.52     0  02:25           0        6.38       0.345
  WS02004412           JUNCTION      0.00   559.32     0  02:25           0        6.36       0.365
  WS02004413           JUNCTION      0.00   559.24     0  02:25           0        6.33       0.529
  WS02004405           JUNCTION      0.04   560.29     0  02:24     0.00107        6.49       0.341
  WS02006109           JUNCTION      1.23   553.72     0  02:21      0.0347        6.66       0.314
  WS02006110           JUNCTION      0.00   553.69     0  02:21           0        6.64       0.326
  WS02006111           JUNCTION      0.00   576.83     0  02:21           0         6.6       0.082
  WS02006112           JUNCTION      7.75   566.56     0  02:20      0.0414        6.64       0.478
  WS02006113           JUNCTION      0.00   554.27     0  02:20           0        6.62       0.175
  WS02006115           JUNCTION      0.00   570.87     0  02:20           0        6.61       0.359
  WS02006116           JUNCTION      0.00   561.39     0  02:23           0        6.58       0.337
  WS02006230           JUNCTION     10.28   389.55     0  07:11        0.29        5.35       0.217
  WS02006231           JUNCTION      0.00   379.35     0  07:08           0        5.08       0.383
  WS02006232           JUNCTION      0.00   379.41     0  07:07           0         5.1       0.345
  WS02006234           JUNCTION      0.00   379.84     0  07:06           0        5.11       0.203
  WS02006235           JUNCTION      0.00   380.97     0  07:03           0        5.16       0.236
  WS02006238           JUNCTION      0.00   316.39     0  07:50           0        3.16       0.287
  WS02006240           JUNCTION      0.00   320.92     0  02:03           0        3.14       0.504
  WS02006242           JUNCTION      0.00   335.91     0  02:03           0        3.15       0.597
  WS02006243           JUNCTION      0.00   349.69     0  02:02           0        3.14       0.151
  WS02006245           JUNCTION      0.00   357.71     0  02:02           0        3.16       0.495
  WS02006247           JUNCTION      0.00   364.09     0  02:02           0        3.17       0.327
  WS02006248           JUNCTION      0.00   369.75     0  02:02           0        3.17       0.195
  WS02006249           JUNCTION      0.00   439.37     0  02:20           0        3.62       0.488
  WS02006239           JUNCTION      0.00   316.38     0  07:50           0        3.15       0.482
  WS02006251           JUNCTION      0.08   439.53     0  02:20     0.00217        3.66       0.373
  WS02006252           JUNCTION      0.00   400.00     0  02:01           0        3.41       0.016
  WS02006253           JUNCTION      1.03    41.74     0  02:26     0.00535       0.251       3.588
  WS02006256           JUNCTION      0.00   600.00     0  02:16           0        4.87       0.067
  WS02004138           JUNCTION      0.00   380.00     0  02:30           0         7.1       0.066
  WS02004407           JUNCTION      0.00   560.16     0  02:24           0        6.43       0.137
  WS02006228           JUNCTION      0.00   552.50     0  02:21           0        6.64       0.237
  WS02006229           JUNCTION      0.00   552.34     0  02:21           0        6.65       0.208
  WS02006280           JUNCTION      0.00   204.81     0  02:27           0        1.31       0.005
  WS02006284           JUNCTION      0.10   204.80     0  02:27      0.0027        1.31       0.087
  WS02006287           JUNCTION      0.00   204.70     0  02:27           0        1.31       0.053
  WSF200               JUNCTION      0.00   559.10     0  02:26           0        6.28       0.083
  HS02004901           JUNCTION      9.37     9.37     0  02:23      0.0498      0.0501       3.646
  HS02004881           JUNCTION      4.04    40.76     0  02:26      0.0217        0.23       0.037
  HS02004876           JUNCTION      7.43    36.75     0  02:26      0.0417       0.209       0.259
  HS02004870           JUNCTION      7.54    29.42     0  02:26      0.0411       0.167       0.066
  HS02004862           JUNCTION      7.28    22.06     0  02:26      0.0469       0.126       0.137
  HS02004856           JUNCTION      5.65    14.84     0  02:26       0.031      0.0805       1.824
  HS02004852           JUNCTION      0.00     9.33     0  02:26           0      0.0496       0.109
  HS02004848           JUNCTION     15.91    15.91     0  02:26      0.0988      0.0988       0.048
  HS02004842           JUNCTION      0.00     6.79     0  02:51           0      0.0622      26.413
  HS02004837           JUNCTION     19.22    25.66     0  02:25       0.251         0.3       0.272
  HS02004830           JUNCTION      0.15    25.80     0  02:26     0.00423        0.29       0.427
  HS02004824           JUNCTION     19.28    44.91     0  02:27       0.129       0.418       0.129
  HS02004817           JUNCTION      0.60    45.51     0  02:27      0.0169       0.435       3.987
  HS02004807           JUNCTION     13.93    58.94     0  02:27      0.0757       0.494       0.884
  HS02004802           JUNCTION      0.00    59.00     0  02:28           0       0.491       0.809
  HS02004799           JUNCTION     11.15   123.20     0  02:25      0.0613       0.713       0.360
  HS02004792           JUNCTION     47.36   112.13     0  02:24       0.263       0.652       0.064
  HS02004788           JUNCTION     17.07    65.26     0  02:25       0.132        0.39       0.102
  HS02004785           JUNCTION      0.15    48.39     0  02:25     0.00423       0.259       0.188
  HS02004777           JUNCTION      0.03    48.40     0  02:24    0.000846        0.26       2.037
  HS02004770           JUNCTION     39.46    48.64     0  02:23       0.213       0.261       1.203
  HS02004480           JUNCTION      0.00   146.07     0  02:25           0       0.837       0.127
  HS02004479           JUNCTION      0.00    23.09     0  02:27           0       0.137       0.537
  HS02004478           JUNCTION      0.00   204.70     0  02:26           0        1.31       0.031
  YS02001745           JUNCTION    149.28   329.05     0  03:07        1.44        1.46       0.526
  YS02001748           JUNCTION      0.04   454.49     0  03:07     0.00127        1.45       1.393
  YS02001751           JUNCTION      0.01   325.49     0  02:55     0.00031        1.41       1.664
  YS02001754           JUNCTION      0.26   202.33     0  02:51     0.00733         1.4       1.816
  YS02001762           JUNCTION      0.00   219.36     0  03:07           0        1.56       1.389
  YS02001765           JUNCTION      0.00   213.63     0  03:07           0        1.56       1.607
  YS02001767           JUNCTION      0.54   208.85     0  02:56      0.0151        1.58       2.331
  YS02001770           JUNCTION    187.24   200.13     0  02:58        1.65        1.66       1.955
  YS02001774           JUNCTION      0.00    32.67     0  01:57           0      0.0699      56.695
  YS02001779           JUNCTION      0.01    29.26     0  03:07    0.000141      0.0356      75.376
  YS02001882           JUNCTION      0.00    13.30     0  03:06           0      0.0112      21.111
  YS02001884           JUNCTION      0.00    17.86     0  03:02           0      0.0376      16.995
  YS02001759           JUNCTION    180.39   397.29     0  02:56        1.53        3.05       0.766
  YS02001887           JUNCTION    226.70   237.60     0  03:00        1.79        1.81       0.433
  YS02001890           JUNCTION      0.00   236.76     0  03:01           0        1.77       0.481
  YS02001898           JUNCTION      0.00   243.02     0  03:03           0        1.76       0.154
  YS02001901           JUNCTION      0.00   240.04     0  03:03           0        1.76       0.352
  YS02001904           JUNCTION      0.00   238.33     0  03:02           0        1.75       0.325
  YS02001907           JUNCTION      0.00   451.80     0  03:02           0        3.82       0.609
  YS02001910           JUNCTION      0.00   224.03     0  03:03           0        2.08       0.528
  YS02001915           JUNCTION    132.40   210.60     0  03:03        1.22        2.08       0.253
  YS02001918           JUNCTION      0.00    74.86     0  03:03           0       0.866       0.176
  YS02001619           JUNCTION    129.20   129.20     0  03:01        1.21        1.21       1.017
  YS02001629           JUNCTION      0.00   182.09     0  02:52           0        1.12       2.639
  YS02001641           JUNCTION      0.00   308.98     0  03:01           0        2.44       0.893
  YS02001644           JUNCTION    142.03   536.70     0  03:48        1.38        4.94       0.540
  YS02001652           JUNCTION      0.00   247.28     0  03:03           0        1.29       1.923
  YS02001655           JUNCTION      0.15   351.97     0  02:55     0.00434        1.31       1.833
  YS02001920           JUNCTION      2.87    67.64     0  03:02      0.0809       0.868       0.287
  YS02001923           JUNCTION      0.04    64.78     0  03:02     0.00106       0.788       0.052
  YS02001926           JUNCTION      0.05    64.97     0  03:01     0.00147       0.789       0.356
  YS02001929           JUNCTION     64.98    64.98     0  03:01       0.788       0.788       0.051
  YS02001658           JUNCTION      0.00   571.99     0  03:02           0        1.37       1.146
  YS02001661           JUNCTION      0.00   421.79     0  03:03           0        2.01      -0.167
  YS02001664           JUNCTION    164.01   328.77     0  04:08        1.32        1.96       0.149
  YS02001622           JUNCTION      0.00   160.35     0  02:56           0        1.19       2.717
  YS02001633           JUNCTION    144.48   307.96     0  03:03        1.43         2.5       1.316
  YS02001649           JUNCTION      0.00   629.79     0  03:02           0        3.94       0.965
  YS02001757           JUNCTION      0.00  1107.85     0  03:02           0        7.22       1.297
  YS02001895           JUNCTION      0.00   239.68     0  03:03           0        1.76       0.240
  YS02001625           JUNCTION      0.00   182.31     0  02:52           0        1.16       3.453
  YS02163301           JUNCTION      0.00   168.85     0  03:07           0         1.1       2.252
  YS02163601           JUNCTION      0.11   308.39     0  03:01      0.0031        2.47       1.243
  YS02164001           JUNCTION      0.00   307.91     0  03:01           0        2.45       0.858
  YS02001647           JUNCTION      0.00   448.89     0  03:01           0         3.1       0.926
  YSB1154              JUNCTION     13.22    13.22     0  02:24      0.0743      0.0752       1.964
  YSB6556              JUNCTION      0.00    13.14     0  02:25           0      0.0759       1.671
  YSB1174              JUNCTION     10.23    10.23     0  02:22       0.054      0.0546       2.413
  YSB1171              JUNCTION      0.00    23.08     0  02:25           0       0.136       4.884
  YS02006553           JUNCTION      0.00   444.77     0  03:02           0        3.81       0.389
  YS02006561           JUNCTION      0.00   673.85     0  02:58           0        5.39      -0.000
  YS02006556           JUNCTION      0.00   449.30     0  03:02           0        3.81       0.282
  YS02006558           JUNCTION    197.15   646.41     0  03:01        1.63        5.42       0.097
  YS02001783           JUNCTION      0.00   632.78     0  03:02           0        5.39       0.024
  YS02001784           JUNCTION      1.06   633.28     0  03:02      0.0299        5.42       0.053
  YS02001786           JUNCTION      0.06   633.24     0  03:02     0.00159        5.42       0.048
  YS02001788           JUNCTION      0.07   635.36     0  03:02       0.002        5.42       0.031
  YS02001790           JUNCTION      0.15   635.26     0  03:02     0.00437        5.42       0.033
  YS02001791           JUNCTION      0.00   635.49     0  03:02           0        5.42       0.019
  YS02001793           JUNCTION      0.00   635.37     0  03:02           0        5.42       0.012
  WS02004139           JUNCTION      0.32   380.32     0  02:32     0.00905         7.1       0.543
  WSC                  OUTFALL       0.00   935.73     0  02:35           0        13.8       0.000
  3                    OUTFALL       0.00   520.98     0  02:20           0        2.82       0.000
  4                    OUTFALL       0.00   169.16     0  02:20           0       0.432       0.000
  5                    OUTFALL       0.00     0.00     0  00:00           0           0       0.000 ltr
  JK-storage           STORAGE       0.00   746.07     0  02:37           0        5.57     -17.357
  CC-storage           STORAGE       0.00  1109.06     0  03:02           0        6.38      -0.939
  XR-storage           STORAGE     442.93   442.93     0  03:01        8.07        8.67      -0.000
  
  
  **********************
  Node Surcharge Summary
  **********************
  
  Surcharging occurs when water rises above the top of the highest conduit.
  ---------------------------------------------------------------------
                                               Max. Height   Min. Depth
                                   Hours       Above Crown    Below Rim
  Node                 Type      Surcharged         Meters       Meters
  ---------------------------------------------------------------------
  WS02006109           JUNCTION        1.26          0.168        1.652
  WS02006110           JUNCTION        0.39          0.024        1.826
  WS02006112           JUNCTION        0.43          0.086        1.594
  WS02006231           JUNCTION        0.07          0.005        1.525
  WS02006232           JUNCTION        1.29          0.149        1.331
  WS02006234           JUNCTION        0.38          0.069        1.171
  WS02006235           JUNCTION        0.42          0.113        1.177
  WS02006238           JUNCTION        1.18          0.130        1.300
  WS02006240           JUNCTION        0.34          0.056        1.334
  WS02006242           JUNCTION        1.13          0.099        0.721
  WS02006243           JUNCTION        0.14          0.008        0.762
  WS02006239           JUNCTION        0.38          0.078        1.212
  WS02006252           JUNCTION        1.45          0.193        0.907
  WS02006228           JUNCTION        0.82          0.200        2.000
  YS02001748           JUNCTION        4.23          0.230        0.960
  YS02001751           JUNCTION        4.85          1.152        0.048
  YS02001754           JUNCTION        5.16          1.013        0.137
  YS02001762           JUNCTION        5.50          1.023        0.127
  YS02001765           JUNCTION        5.45          1.020        0.080
  YS02001767           JUNCTION        5.40          1.000        0.030
  YS02001770           JUNCTION        5.32          0.920        0.000
  YS02001774           JUNCTION        5.48          1.029        0.021
  YS02001779           JUNCTION        5.13          0.680        0.000
  YS02001759           JUNCTION        5.53          1.060        0.150
  YS02001907           JUNCTION        0.34          0.043        0.907
  YS02001619           JUNCTION        4.80          0.610        0.000
  YS02001629           JUNCTION        4.83          0.470        0.000
  YS02001641           JUNCTION        5.47          0.933        0.167
  YS02001644           JUNCTION        5.47          0.920        0.000
  YS02001652           JUNCTION        5.22          1.085        0.045
  YS02001655           JUNCTION        4.86          1.086        0.114
  YS02001658           JUNCTION        4.31          1.093        0.207
  YS02001661           JUNCTION        0.09          0.602        0.788
  YS02001622           JUNCTION        4.88          0.620        0.000
  YS02001633           JUNCTION        5.44          0.916        0.144
  YS02001649           JUNCTION        5.50          1.050        0.000
  YS02001757           JUNCTION        5.64          1.161        0.049
  YS02001625           JUNCTION        5.26          0.780        0.000
  YS02163301           JUNCTION        5.39          0.884        0.146
  YS02163601           JUNCTION        5.51          0.983        0.097
  YS02164001           JUNCTION        5.46          0.916        0.184
  YS02001647           JUNCTION        5.24          0.799        0.101
  YS02006553           JUNCTION        0.47          0.054        1.136
  YS02001783           JUNCTION        0.24          0.183        1.417
  YS02001784           JUNCTION        0.42          0.268        1.222
  YS02001786           JUNCTION        0.26          0.115        1.315
  YS02001788           JUNCTION        0.17          0.135        1.345
  YS02001790           JUNCTION        1.79          0.680        0.477
  YS02001791           JUNCTION        1.91          0.497        1.423
  YS02001793           JUNCTION        2.11          0.805        1.795
  
  
  *********************
  Node Flooding Summary
  *********************
  
  Flooding refers to all water that overflows a node, whether it ponds or not.
  --------------------------------------------------------------------------
                                                             Total   Maximum
                                 Maximum   Time of Max       Flood    Ponded
                        Hours       Rate    Occurrence      Volume     Depth
  Node                 Flooded       LPS   days hr:min    10^6 ltr    Meters
  --------------------------------------------------------------------------
  YS02001770              0.01     16.40      0  03:07       0.000     0.000
  YS02001779              1.53     27.88      0  03:07       0.014     0.000
  YS02001619              0.01     18.18      0  03:09       0.000     0.000
  YS02001629              0.01     17.76      0  03:09       0.000     0.000
  YS02001644              3.33    536.56      0  03:48       2.944     0.000
  YS02001622              0.01      7.53      0  03:07       0.000     0.000
  YS02001649              0.01     12.13      0  03:38       0.000     0.000
  YS02001625              0.04     12.85      0  03:27       0.001     0.000
  JK-storage              1.49    635.50      0  03:02       1.873     0.000
  XR-storage              4.37    140.30      0  02:21       0.776     0.000
  
  
  **********************
  Storage Volume Summary
  **********************
  
  --------------------------------------------------------------------------------------------------
                         Average     Avg  Evap Exfil       Maximum     Max    Time of Max    Maximum
                          Volume    Pcnt  Pcnt  Pcnt        Volume    Pcnt     Occurrence    Outflow
  Storage Unit           1000 m3    Full  Loss  Loss       1000 m3    Full    days hr:min        LPS
  --------------------------------------------------------------------------------------------------
  JK-storage               0.103      35     0     0         0.291     100       0  02:40     600.00
  CC-storage               2.772      18     0     0         3.811      24       0  06:44     400.00
  XR-storage               0.883      95     0     0         0.926     100       0  02:21     380.00
  
  
  ***********************
  Outfall Loading Summary
  ***********************
  
  -----------------------------------------------------------
                         Flow       Avg       Max       Total
                         Freq      Flow      Flow      Volume
  Outfall Node           Pcnt       LPS       LPS    10^6 ltr
  -----------------------------------------------------------
  WSC                   99.99    538.34    935.73      13.798
  3                     86.50    166.57    520.98       2.821
  4                     23.77     92.07    169.16       0.432
  5                      0.00      0.00      0.00       0.000
  -----------------------------------------------------------
  System                52.56    796.99   1429.19      17.051
  
  
  ********************
  Link Flow Summary
  ********************
  
  -----------------------------------------------------------------------------
                                 Maximum  Time of Max   Maximum    Max/    Max/
                                  |Flow|   Occurrence   |Veloc|    Full    Full
  Link                 Type          LPS  days hr:min     m/sec    Flow   Depth
  -----------------------------------------------------------------------------
  WS02003066WSF200     CONDUIT    559.10     0  02:26      2.76    0.09    0.24
  WS02006287WS02006284 CONDUIT    204.71     0  02:27      1.62    0.09    0.22
  WS02006284WS02006280 CONDUIT    204.81     0  02:27      1.86    0.09    0.20
  WS02006280WS02006229 CONDUIT    204.81     0  02:27      2.99    0.04    0.14
  WS02006229WS02006228 CONDUIT    552.50     0  02:21      1.10    1.83    1.00
  WS02006256WS02006235 CONDUIT    166.25     0  00:01      2.58    1.76    1.00
  WS02006253WS02006251 CONDUIT     59.85     0  02:28      0.49    0.18    0.96
  WS02006252WS02006251 CONDUIT    400.79     0  07:00      3.19    1.47    1.00
  WS02006251WS02006249 CONDUIT    439.37     0  02:20      1.23    1.27    0.93
  WS02006249WS02006248 CONDUIT    369.75     0  02:02      1.19    2.03    0.88
  WS02006248WS02006247 CONDUIT    364.09     0  02:02      1.16    0.79    0.93
  WS02006247WS02006245 CONDUIT    357.71     0  02:02      1.13    2.84    0.98
  WS02006245WS02006243 CONDUIT    349.69     0  02:02      1.17    1.03    0.99
  WS02006243WS02006242 CONDUIT    335.91     0  02:03      1.00    0.72    1.00
  WS02006242WS02006240 CONDUIT    320.92     0  02:03      0.89    1.27    1.00
  WS02006240WS02006239 CONDUIT    316.38     0  07:50      0.87    1.00    1.00
  WS02006239WS02006238 CONDUIT    316.39     0  07:50      0.82    1.01    1.00
  WS02006238WS02006235 CONDUIT    316.40     0  07:50      1.25    0.71    1.00
  WS02006235WS02006234 CONDUIT    379.84     0  07:06      1.03    4.01    1.00
  WS02006234WS02006232 CONDUIT    379.41     0  07:07      1.13    0.77    1.00
  WS02006232WS02006231 CONDUIT    379.35     0  07:08      1.04    0.79    1.00
  WS02006231WS02006230 CONDUIT    379.27     0  07:11      1.36    5.75    0.97
  WS02006230WS02006229 CONDUIT    389.55     0  07:12      1.01    8.67    1.00
  WS02006228WS02006109 CONDUIT    552.49     0  02:21      1.10    2.41    1.00
  WS02006116WS02004401 CONDUIT    560.83     0  02:23      0.78    0.77    0.86
  WS02006115WS02006116 CONDUIT    561.39     0  02:23      0.88    0.72    0.78
  WS02006113WS02006111 CONDUIT    576.83     0  02:21      2.49    0.69    0.47
  WS02006112WS02006115 CONDUIT    570.87     0  02:20      0.78    0.34    0.88
  WS02006111WS02006112 CONDUIT    558.87     0  02:20      1.55    0.27    0.68
  WS02006110WS02006113 CONDUIT    554.27     0  02:20      1.31    0.50    0.79
  WS02006109WS02006110 CONDUIT    553.69     0  02:21      1.10    1.06    1.00
  WS02004411WS02004412 CONDUIT    559.32     0  02:25      0.94    0.79    0.71
  WS02004401WS02004402 CONDUIT    560.31     0  02:23      0.77    0.67    0.88
  WS02004413WS02003067 CONDUIT    559.12     0  02:26      1.14    0.24    0.60
  WS02004412WS02004413 CONDUIT    559.24     0  02:25      0.84    0.37    0.79
  WS02004410WS02004411 CONDUIT    559.52     0  02:25      0.95    0.76    0.70
  WS02004409WS02004410 CONDUIT    559.75     0  02:24      0.97    0.72    0.69
  WS02004407WS02004409 CONDUIT    560.06     0  02:24      1.48    0.20    0.49
  WS02004406WS02004407 CONDUIT    560.16     0  02:24      1.06    0.25    0.64
  WS02004405WS02004406 CONDUIT    560.21     0  02:24      0.72    1.11    0.97
  WS02004404WS02004405 CONDUIT    560.25     0  02:24      0.84    5.49    0.97
  WS02004403WS02004404 CONDUIT    560.15     0  02:24      0.74    0.40    0.94
  WS02004402WS02004403 CONDUIT    560.15     0  02:24      0.75    0.80    0.90
  WS02004139WS02001211 CONDUIT    381.84     0  02:45      0.69    0.48    0.60
  WS02004138WS02004139 CONDUIT    380.00     0  02:32      2.94    0.08    0.44
  WS02003067WS02003066 CONDUIT    559.13     0  02:26      1.23    0.18    0.42
  WS02001213WS02003059 CONDUIT    395.59     0  02:44      0.67    0.65    0.77
  WS02001212WS02001213 CONDUIT    392.70     0  02:44      1.27    0.61    0.47
  WS02001211WS02001212 CONDUIT    390.95     0  02:45      0.77    0.30    0.65
  WS02003072WS02003073 CONDUIT    933.58     0  02:35      1.72    2.02    0.48
  WS02003069WS02003072 CONDUIT    933.38     0  02:34      1.62    0.45    0.51
  WS02003060WS02003069 CONDUIT    933.04     0  02:34      1.86    0.37    0.46
  WS02003059WS02003060 CONDUIT    399.54     0  02:43      0.87    0.26    0.66
  HS02004901HS02004770 CONDUIT      9.22     0  02:24      0.05    0.03    0.31
  HS02004876HS02004881 CONDUIT     36.81     0  02:26      0.59    0.39    0.09
  HS02004870HS02004876 CONDUIT     29.40     0  02:26      0.41    0.02    0.10
  HS02004842HS02004848 CONDUIT      6.79     0  02:51      0.04    0.00    0.28
  HS02004837HS02004842 CONDUIT      7.01     0  03:02      0.41    0.00    0.29
  HS02004830HS02004837 CONDUIT     25.65     0  02:26      0.46    0.03    0.08
  HS02004824HS02004830 CONDUIT     25.79     0  02:27      0.49    0.03    0.08
  HS02004817HS02004824 CONDUIT     44.91     0  02:27      0.17    0.02    0.41
  HS02004770HS02004777 CONDUIT     48.37     0  02:24      0.21    0.09    0.33
  HS02004799HS02004480 CONDUIT    123.11     0  02:25      0.58    0.16    0.31
  HS02004792HS02004799 CONDUIT    112.10     0  02:25      0.66    0.07    0.24
  HS02004788HS02004792 CONDUIT     65.23     0  02:26      0.81    0.04    0.11
  HS02004785HS02004788 CONDUIT     48.34     0  02:26      0.49    0.36    0.14
  HS02004777HS02004785 CONDUIT     48.24     0  02:25      0.26    0.06    0.26
  HS02004480HS02004478 CONDUIT    146.06     0  02:26      0.94    0.62    0.22
  HS02004479HS02004480 CONDUIT     23.22     0  02:28      0.27    0.02    0.30
  HS02004862HS02004870 CONDUIT     22.03     0  02:27      0.49    0.02    0.06
  HS02004848HS02004852 CONDUIT      9.33     0  02:26      0.33    0.01    0.04
  HS02004856HS02004862 CONDUIT     14.82     0  02:26      0.35    0.01    0.06
  HS02004852HS02004856 CONDUIT      9.30     0  02:27      0.14    0.01    0.10
  HS02004802HS02004478 CONDUIT     59.19     0  02:29      0.33    0.05    0.26
  HS02004478WS02006287 CONDUIT    204.70     0  02:27      1.31    0.06    0.17
  HS02004817HS02004807 CONDUIT     45.68     0  02:29      0.13    0.03    0.52
  HS02004807HS02004802 CONDUIT     59.00     0  02:28      0.28    0.11    0.31
  YS02001759YS02001757 CONDUIT    400.34     0  02:56      0.51    0.28    1.00
  YS02001762YS02001759 CONDUIT    223.61     0  03:07      0.28    0.26    1.00
  YS02001765YS02001762 CONDUIT    219.36     0  03:07      0.28    0.21    1.00
  YS02001770YS02001767 CONDUIT    208.31     0  02:56      0.27    0.83    1.00
  YS02001774YS02001770 CONDUIT     32.67     0  01:57      0.22    0.02    1.00
  YS02001779YS02001774 CONDUIT     29.26     0  03:07      0.05    0.01    1.00
  YS02001649YS02001757 CONDUIT    631.34     0  03:02      0.80    0.38    1.00
  YS02001767YS02001765 CONDUIT    213.63     0  03:07      0.30    0.27    1.00
  YS02006561YS02001783 CONDUIT    632.78     0  03:02      2.01    0.33    0.71
  YS02001783YS02001784 CONDUIT    632.22     0  03:02      1.45    0.87    1.00
  YS02001784YS02001785 CONDUIT    633.18     0  03:02      1.55    1.47    1.00
  YS02001788YS02001790 CONDUIT    635.11     0  03:02      2.08    0.47    1.00
  YS02001790YS02001791 CONDUIT    635.49     0  03:02      2.47    0.69    1.00
  YS02001791YS02001793 CONDUIT    635.37     0  03:02      4.96    0.27    1.00
  YS02001910YS02001907 CONDUIT    218.84     0  03:06      0.49    0.12    0.91
  YS02001786YS02001788 CONDUIT    635.28     0  03:02      2.02    1.22    1.00
  YS02001915YS02001910 CONDUIT    224.03     0  03:03      0.55    0.11    0.72
  YS02001918YS02001915 CONDUIT     81.42     0  03:03      0.44    0.04    0.43
  YS02001923YS02001920 CONDUIT     64.77     0  03:02      0.57    0.03    0.22
  YS02001926YS02001923 CONDUIT     64.74     0  03:02      0.66    0.09    0.18
  YS02001929YS02001926 CONDUIT     64.92     0  03:01      0.71    0.03    0.17
  YS02001920YS02001918 CONDUIT     74.86     0  03:03      0.57    0.07    0.29
  YS02001629YS02163301 CONDUIT    168.85     0  03:07      0.21    0.21    1.00
  YS02001619YS02001622 CONDUIT    160.35     0  02:56      0.57    0.24    1.00
  YS02001622YS02001625 CONDUIT    182.31     0  02:52      0.31    0.10    1.00
  YS02001625YS02001629 CONDUIT    182.09     0  02:52      0.24    0.09    1.00
  YS02163301YS02001633 CONDUIT    171.20     0  03:07      0.22    0.16    1.00
  YS02163601YS02164001 CONDUIT    307.91     0  03:01      0.39    0.27    1.00
  YS02164001YS02001641 CONDUIT    308.98     0  03:01      0.39    0.42    1.00
  YS02001641YS02001644 CONDUIT    309.06     0  03:01      0.39    1.00    1.00
  YS02001647YS02001649 CONDUIT    449.17     0  03:01      0.57    0.24    1.00
  YS02006553YS02006556 CONDUIT    449.30     0  03:02      0.58    0.38    0.99
  YS02006556YS02006558 CONDUIT    460.38     0  03:06      0.59    0.36    1.00
  YSB6556YSB1171       CONDUIT     13.19     0  02:28      0.06    0.01    0.57
  YS02001907YS02006553 CONDUIT    444.77     0  03:02      0.49    0.52    1.00
  YS02006558YS02006561 CONDUIT    673.85     0  02:58      3.16    1.49    0.73
  YS02001633YS02163601 CONDUIT    308.28     0  03:01      0.39    0.32    1.00
  YS02001644YS02001647 CONDUIT    448.89     0  03:01      0.57    0.26    1.00
  YS02001745YS02001748 CONDUIT    454.45     0  03:07      1.42    0.17    0.93
  YS02001748YS02001751 CONDUIT    325.48     0  02:55      1.00    0.16    1.00
  YS02001751YS02001754 CONDUIT    202.07     0  02:51      0.86    0.10    1.00
  YS02001754YS02001757 CONDUIT    201.65     0  02:51      0.33    0.08    1.00
  YS02001882YS02001884 CONDUIT     15.04     0  03:07      0.09    0.02    0.65
  YS02001884YS02001887 CONDUIT     19.41     0  03:05      0.05    0.03    0.75
  YS02001890YS02001895 CONDUIT    239.68     0  03:03      0.40    0.11    0.71
  YS02001895YS02001898 CONDUIT    243.02     0  03:03      0.53    0.42    0.58
  YS02001898YS02001901 CONDUIT    240.04     0  03:03      0.45    0.15    0.66
  YS02001901YS02001904 CONDUIT    238.33     0  03:02      0.41    0.37    0.71
  YS02001904YS02001907 CONDUIT    249.24     0  03:04      0.35    0.09    0.85
  YS02001887YS02001890 CONDUIT    236.76     0  03:01      0.35    0.41    0.80
  YS02001652YS02001649 CONDUIT    249.01     0  03:03      0.56    0.12    1.00
  YS02001655YS02001652 CONDUIT    247.28     0  03:03      0.91    0.12    1.00
  YS02001658YS02001655 CONDUIT    351.81     0  02:55      1.15    0.15    1.00
  YS02001661YS02001658 CONDUIT    571.99     0  03:02      1.49    0.22    1.00
  YS02001664YS02001661 CONDUIT    413.27     0  03:25      1.39    0.13    0.70
  YSB1154YSB6556       CONDUIT     13.14     0  02:25      0.16    0.02    0.46
  YSB1174YSB1171       CONDUIT     10.08     0  02:23      0.04    0.02    0.57
  YSB1171HS02004479    CONDUIT     23.09     0  02:27      0.54    0.02    0.44
  HS02004881HS02006253 CONDUIT     40.75     0  02:26      1.68    0.01    0.27
  YS02001793JiankangQianchi CONDUIT    746.07     0  02:37     13.92    0.06    1.00
  YS02001757CaochengTiaoxuchi CONDUIT   1109.06     0  03:02      1.80    0.49    1.00
  WSF200WS02003060     CONDUIT    558.82     0  02:27      1.77    0.12    0.34
  1                    CONDUIT    935.73     0  02:35      3.27    0.33    0.39
  2                    CONDUIT    169.16     0  02:20      5.59    0.40    0.44
  3                    CONDUIT    520.98     0  02:20     10.19    0.83    0.70
  4                    CONDUIT      0.00     0  00:00      0.00    0.00    0.00
  CC-Pump-1            PUMP       200.00     0  02:01              1.00
  CC-Pump-2            PUMP       200.00     0  02:01              1.00
  JK-Pump-1            PUMP       300.00     0  02:16              1.00
  JK-Pump-2            PUMP       300.00     0  00:00              1.00
  XR-Pump-1            PUMP        95.00     0  02:30              1.00
  XR-Pump-2            PUMP        95.00     0  00:00              1.00
  XR-Pump-3            PUMP        95.00     0  01:50              1.00
  XR-Pump-4            PUMP        95.00     0  00:00              1.00
  
  
  ***************************
  Flow Classification Summary
  ***************************
  
  -------------------------------------------------------------------------------------
                      Adjusted    ---------- Fraction of Time in Flow Class ---------- 
                       /Actual         Up    Down  Sub   Sup   Up    Down  Norm  Inlet 
  Conduit               Length    Dry  Dry   Dry   Crit  Crit  Crit  Crit  Ltd   Ctrl  
  -------------------------------------------------------------------------------------
  WS02003066WSF200        1.00   0.07  0.00  0.00  0.00  0.93  0.00  0.00  0.71  0.00
  WS02006287WS02006284    1.00   0.04  0.01  0.00  0.66  0.28  0.00  0.00  0.77  0.00
  WS02006284WS02006280    1.00   0.05  0.00  0.00  0.00  0.00  0.00  0.95  0.00  0.00
  WS02006280WS02006229    1.00   0.05  0.00  0.00  0.00  0.00  0.00  0.95  0.00  0.00
  WS02006229WS02006228    1.00   0.00  0.00  0.00  0.98  0.00  0.00  0.01  0.00  0.00
  WS02006256WS02006235    1.00   0.00  0.00  0.00  1.00  0.00  0.00  0.00  0.00  0.00
  WS02006253WS02006251    1.00   0.03  0.01  0.00  0.95  0.00  0.00  0.00  0.00  0.00
  WS02006252WS02006251    1.00   0.09  0.00  0.00  0.00  0.00  0.91  0.00  0.00  0.00
  WS02006251WS02006249    1.00   0.00  0.00  0.00  1.00  0.00  0.00  0.00  0.44  0.00
  WS02006249WS02006248    1.00   0.00  0.02  0.00  0.66  0.00  0.32  0.00  0.00  0.00
  WS02006248WS02006247    1.00   0.03  0.00  0.00  0.97  0.00  0.00  0.00  0.37  0.00
  WS02006247WS02006245    1.00   0.02  0.00  0.00  0.97  0.00  0.00  0.00  0.00  0.00
  WS02006245WS02006243    1.00   0.01  0.00  0.00  0.93  0.00  0.00  0.05  0.01  0.00
  WS02006243WS02006242    1.00   0.01  0.00  0.00  0.99  0.00  0.00  0.00  0.32  0.00
  WS02006242WS02006240    1.00   0.00  0.00  0.00  1.00  0.00  0.00  0.00  0.00  0.00
  WS02006240WS02006239    1.00   0.00  0.00  0.00  0.96  0.00  0.00  0.04  0.01  0.00
  WS02006239WS02006238    1.00   0.00  0.00  0.00  1.00  0.00  0.00  0.00  0.02  0.00
  WS02006238WS02006235    1.00   0.00  0.00  0.00  1.00  0.00  0.00  0.00  0.00  0.00
  WS02006235WS02006234    1.00   0.00  0.00  0.00  0.96  0.00  0.04  0.00  0.00  0.00
  WS02006234WS02006232    1.00   0.00  0.00  0.00  1.00  0.00  0.00  0.00  0.11  0.00
  WS02006232WS02006231    1.00   0.00  0.00  0.00  0.99  0.00  0.01  0.00  0.00  0.00
  WS02006231WS02006230    1.00   0.00  0.00  0.00  0.51  0.00  0.48  0.00  0.00  0.00
  WS02006230WS02006229    1.00   0.00  0.00  0.00  0.98  0.00  0.00  0.02  0.01  0.00
  WS02006228WS02006109    1.00   0.00  0.00  0.00  1.00  0.00  0.00  0.00  0.00  0.00
  WS02006116WS02004401    1.00   0.03  0.00  0.00  0.97  0.00  0.00  0.00  0.00  0.00
  WS02006115WS02006116    1.00   0.03  0.00  0.00  0.97  0.00  0.00  0.01  0.00  0.00
  WS02006113WS02006111    1.00   0.02  0.00  0.00  0.00  0.98  0.00  0.00  0.15  0.00
  WS02006112WS02006115    1.00   0.02  0.00  0.00  0.97  0.00  0.00  0.00  0.00  0.00
  WS02006111WS02006112    1.00   0.02  0.00  0.00  0.97  0.00  0.00  0.00  0.98  0.00
  WS02006110WS02006113    1.00   0.01  0.01  0.00  0.98  0.00  0.00  0.00  0.00  0.00
  WS02006109WS02006110    1.00   0.00  0.01  0.00  0.98  0.00  0.01  0.00  0.00  0.00
  WS02004411WS02004412    1.00   0.04  0.00  0.00  0.96  0.00  0.00  0.00  0.00  0.00
  WS02004401WS02004402    1.00   0.03  0.00  0.00  0.97  0.00  0.00  0.00  0.00  0.00
  WS02004413WS02003067    1.00   0.05  0.02  0.00  0.00  0.00  0.94  0.00  0.00  0.00
  WS02004412WS02004413    1.00   0.04  0.00  0.00  0.96  0.00  0.00  0.00  0.03  0.00
  WS02004410WS02004411    1.00   0.04  0.00  0.00  0.96  0.00  0.00  0.00  0.04  0.00
  WS02004409WS02004410    1.00   0.04  0.00  0.00  0.96  0.00  0.00  0.00  0.03  0.00
  WS02004407WS02004409    1.00   0.04  0.00  0.00  0.95  0.00  0.00  0.00  0.89  0.00
  WS02004406WS02004407    1.00   0.00  0.04  0.00  0.96  0.00  0.00  0.00  0.00  0.00
  WS02004405WS02004406    1.00   0.00  0.00  0.00  1.00  0.00  0.00  0.00  0.01  0.00
  WS02004404WS02004405    1.00   0.00  0.00  0.00  1.00  0.00  0.00  0.00  0.00  0.00
  WS02004403WS02004404    1.00   0.00  0.03  0.00  0.97  0.00  0.00  0.00  0.01  0.00
  WS02004402WS02004403    1.00   0.03  0.00  0.00  0.97  0.00  0.00  0.00  0.00  0.00
  WS02004139WS02001211    1.00   0.00  0.00  0.00  0.99  0.00  0.01  0.00  0.00  0.00
  WS02004138WS02004139    1.00   0.00  0.00  0.00  0.99  0.01  0.00  0.00  1.00  0.00
  WS02003067WS02003066    1.00   0.06  0.01  0.00  0.93  0.00  0.00  0.00  0.00  0.00
  WS02001213WS02003059    1.00   0.00  0.00  0.00  0.99  0.00  0.00  0.00  0.00  0.00
  WS02001212WS02001213    1.00   0.01  0.00  0.00  0.65  0.00  0.34  0.00  0.00  0.00
  WS02001211WS02001212    1.00   0.00  0.00  0.00  1.00  0.00  0.00  0.00  0.00  0.00
  WS02003072WS02003073    1.00   0.00  0.00  0.00  0.00  0.00  0.00  1.00  0.00  0.00
  WS02003069WS02003072    1.00   0.00  0.00  0.00  0.99  0.01  0.00  0.00  0.28  0.00
  WS02003060WS02003069    1.00   0.00  0.00  0.00  0.98  0.02  0.00  0.00  0.19  0.00
  WS02003059WS02003060    1.00   0.00  0.00  0.00  1.00  0.00  0.00  0.00  0.01  0.00
  HS02004901HS02004770    1.00   0.05  0.00  0.00  0.95  0.00  0.00  0.00  0.00  0.00
  HS02004876HS02004881    1.00   0.03  0.00  0.00  0.97  0.00  0.00  0.00  0.00  0.00
  HS02004870HS02004876    1.00   0.01  0.00  0.00  0.99  0.00  0.00  0.00  0.95  0.00
  HS02004842HS02004848    1.00   0.00  0.05  0.00  0.95  0.00  0.00  0.00  0.61  0.00
  HS02004837HS02004842    1.00   0.00  0.00  0.00  0.99  0.01  0.00  0.00  0.11  0.00
  HS02004830HS02004837    1.00   0.00  0.00  0.00  1.00  0.00  0.00  0.00  0.99  0.00
  HS02004824HS02004830    1.00   0.00  0.00  0.00  1.00  0.00  0.00  0.00  0.00  0.00
  HS02004817HS02004824    1.00   0.00  0.00  0.00  1.00  0.00  0.00  0.00  1.00  0.00
  HS02004770HS02004777    1.00   0.00  0.05  0.00  0.95  0.00  0.00  0.00  0.03  0.00
  HS02004799HS02004480    1.00   0.00  0.03  0.00  0.95  0.00  0.02  0.00  0.00  0.00
  HS02004792HS02004799    1.00   0.00  0.00  0.00  0.98  0.02  0.00  0.00  0.98  0.00
  HS02004788HS02004792    1.00   0.00  0.00  0.00  0.99  0.01  0.00  0.00  0.98  0.00
  HS02004785HS02004788    1.00   0.00  0.00  0.00  1.00  0.00  0.00  0.00  0.00  0.00
  HS02004777HS02004785    1.00   0.00  0.00  0.00  1.00  0.00  0.00  0.00  0.13  0.00
  HS02004480HS02004478    1.00   0.05  0.00  0.00  0.72  0.00  0.00  0.23  0.00  0.00
  HS02004479HS02004480    1.00   0.03  0.00  0.00  0.97  0.00  0.00  0.00  0.12  0.00
  HS02004862HS02004870    1.00   0.00  0.00  0.00  1.00  0.00  0.00  0.00  0.06  0.00
  HS02004848HS02004852    1.00   0.05  0.00  0.00  0.95  0.00  0.00  0.00  0.69  0.00
  HS02004856HS02004862    1.00   0.00  0.06  0.00  0.94  0.00  0.00  0.00  0.81  0.00
  HS02004852HS02004856    1.00   0.05  0.00  0.00  0.95  0.00  0.00  0.00  0.86  0.00
  HS02004802HS02004478    1.00   0.05  0.00  0.00  0.95  0.00  0.00  0.00  0.03  0.00
  HS02004478WS02006287    1.00   0.06  0.00  0.00  0.76  0.18  0.00  0.00  0.77  0.00
  HS02004817HS02004807    1.00   0.00  0.05  0.00  0.95  0.00  0.00  0.00  0.01  0.00
  HS02004807HS02004802    1.00   0.05  0.00  0.00  0.95  0.00  0.00  0.00  0.00  0.00
  YS02001759YS02001757    1.00   0.00  0.00  0.00  1.00  0.00  0.00  0.00  0.16  0.00
  YS02001762YS02001759    1.00   0.00  0.00  0.00  1.00  0.00  0.00  0.00  0.03  0.00
  YS02001765YS02001762    1.00   0.00  0.00  0.00  1.00  0.00  0.00  0.00  0.15  0.00
  YS02001770YS02001767    1.00   0.00  0.00  0.00  1.00  0.00  0.00  0.00  0.00  0.00
  YS02001774YS02001770    1.00   0.00  0.05  0.00  0.95  0.00  0.00  0.00  0.03  0.00
  YS02001779YS02001774    1.00   0.00  0.00  0.00  1.00  0.00  0.00  0.00  0.21  0.00
  YS02001649YS02001757    1.00   0.00  0.00  0.00  1.00  0.00  0.00  0.00  0.16  0.00
  YS02001767YS02001765    1.00   0.00  0.00  0.00  1.00  0.00  0.00  0.00  0.01  0.00
  YS02006561YS02001783    1.00   0.06  0.00  0.00  0.23  0.71  0.00  0.00  0.72  0.00
  YS02001783YS02001784    1.00   0.00  0.06  0.00  0.94  0.00  0.00  0.00  0.01  0.00
  YS02001784YS02001785    1.00   0.00  0.00  0.00  1.00  0.00  0.00  0.00  0.19  0.00
  YS02001788YS02001790    1.00   0.00  0.00  0.00  0.34  0.66  0.00  0.00  0.61  0.00
  YS02001790YS02001791    1.00   0.00  0.00  0.00  0.30  0.70  0.00  0.00  0.47  0.00
  YS02001791YS02001793    1.00   0.00  0.00  0.00  0.31  0.69  0.00  0.00  0.02  0.00
  YS02001910YS02001907    1.00   0.00  0.00  0.00  0.97  0.00  0.00  0.03  0.12  0.00
  YS02001786YS02001788    1.00   0.00  0.00  0.00  0.32  0.68  0.00  0.00  0.00  0.00
  YS02001915YS02001910    1.00   0.00  0.00  0.00  0.98  0.02  0.00  0.00  0.18  0.00
  YS02001918YS02001915    1.00   0.00  0.01  0.00  0.98  0.02  0.00  0.00  0.69  0.00
  YS02001923YS02001920    1.00   0.00  0.00  0.00  1.00  0.00  0.00  0.00  1.00  0.00
  YS02001926YS02001923    1.00   0.00  0.04  0.00  0.00  0.00  0.96  0.00  0.00  0.00
  YS02001929YS02001926    1.00   0.00  0.05  0.00  0.95  0.00  0.00  0.00  0.87  0.00
  YS02001920YS02001918    1.00   0.00  0.01  0.00  0.99  0.00  0.00  0.00  0.00  0.00
  YS02001629YS02163301    1.00   0.05  0.00  0.00  0.94  0.00  0.00  0.00  0.00  0.00
  YS02001619YS02001622    1.00   0.05  0.00  0.00  0.95  0.00  0.00  0.00  0.00  0.00
  YS02001622YS02001625    1.00   0.05  0.00  0.00  0.95  0.00  0.00  0.00  0.07  0.00
  YS02001625YS02001629    1.00   0.05  0.02  0.00  0.91  0.00  0.02  0.00  0.00  0.00
  YS02163301YS02001633    1.00   0.00  0.05  0.00  0.95  0.00  0.00  0.00  0.00  0.00
  YS02163601YS02164001    1.00   0.00  0.04  0.00  0.96  0.00  0.00  0.00  0.00  0.00
  YS02164001YS02001641    1.00   0.01  0.03  0.00  0.96  0.00  0.00  0.00  0.06  0.00
  YS02001641YS02001644    1.00   0.00  0.01  0.00  0.99  0.00  0.00  0.00  0.00  0.00
  YS02001647YS02001649    1.00   0.00  0.06  0.00  0.94  0.00  0.00  0.00  0.01  0.00
  YS02006553YS02006556    1.00   0.02  0.00  0.00  0.98  0.00  0.00  0.00  0.03  0.00
  YS02006556YS02006558    1.00   0.00  0.00  0.00  1.00  0.00  0.00  0.00  0.00  0.00
  YSB6556YSB1171          1.00   0.03  0.02  0.00  0.95  0.00  0.00  0.00  0.00  0.00
  YS02001907YS02006553    1.00   0.00  0.02  0.00  0.97  0.00  0.00  0.00  0.00  0.00
  YS02006558YS02006561    1.00   0.06  0.00  0.00  0.00  0.94  0.00  0.00  0.62  0.00
  YS02001633YS02163601    1.00   0.00  0.01  0.00  0.99  0.00  0.00  0.00  0.15  0.00
  YS02001644YS02001647    1.00   0.00  0.06  0.00  0.94  0.00  0.00  0.00  0.00  0.00
  YS02001745YS02001748    1.00   0.00  0.00  0.00  0.83  0.02  0.00  0.15  0.07  0.00
  YS02001748YS02001751    1.00   0.00  0.00  0.00  0.96  0.04  0.00  0.00  0.16  0.00
  YS02001751YS02001754    1.00   0.00  0.00  0.00  0.93  0.00  0.00  0.07  0.02  0.00
  YS02001754YS02001757    1.00   0.00  0.00  0.00  0.99  0.01  0.00  0.00  0.20  0.00
  YS02001882YS02001884    1.00   0.05  0.00  0.00  0.95  0.00  0.00  0.00  0.00  0.00
  YS02001884YS02001887    1.00   0.04  0.01  0.00  0.95  0.00  0.00  0.00  0.00  0.00
  YS02001890YS02001895    1.00   0.00  0.05  0.00  0.94  0.00  0.00  0.00  0.00  0.00
  YS02001895YS02001898    1.00   0.06  0.00  0.00  0.93  0.00  0.01  0.00  0.00  0.00
  YS02001898YS02001901    1.00   0.06  0.00  0.00  0.94  0.00  0.00  0.00  0.03  0.00
  YS02001901YS02001904    1.00   0.06  0.00  0.00  0.94  0.00  0.00  0.00  0.00  0.00
  YS02001904YS02001907    1.00   0.00  0.05  0.00  0.94  0.00  0.00  0.00  0.00  0.00
  YS02001887YS02001890    1.00   0.00  0.00  0.00  0.97  0.00  0.03  0.00  0.00  0.00
  YS02001652YS02001649    1.00   0.00  0.00  0.00  1.00  0.00  0.00  0.00  0.18  0.00
  YS02001655YS02001652    1.00   0.00  0.00  0.00  0.93  0.00  0.00  0.07  0.02  0.00
  YS02001658YS02001655    1.00   0.00  0.05  0.00  0.91  0.04  0.00  0.00  0.12  0.00
  YS02001661YS02001658    1.00   0.05  0.00  0.00  0.83  0.12  0.00  0.00  0.16  0.00
  YS02001664YS02001661    1.00   0.05  0.00  0.00  0.84  0.11  0.00  0.00  0.28  0.00
  YSB1154YSB6556          1.00   0.05  0.00  0.00  0.95  0.00  0.00  0.00  0.02  0.00
  YSB1174YSB1171          1.00   0.03  0.01  0.00  0.96  0.00  0.00  0.00  0.00  0.00
  YSB1171HS02004479       1.00   0.03  0.00  0.00  0.97  0.00  0.00  0.00  0.10  0.00
  HS02004881HS02006253    1.00   0.03  0.00  0.00  0.57  0.01  0.00  0.38  0.42  0.00
  YS02001793JiankangQianchi    1.00   0.00  0.00  0.00  0.43  0.57  0.00  0.00  0.09  0.00
  YS02001757CaochengTiaoxuchi    1.00   0.00  0.09  0.00  0.91  0.00  0.00  0.00  0.00  0.00
  WSF200WS02003060        1.00   0.00  0.07  0.00  0.86  0.07  0.00  0.00  0.37  0.00
  1                       1.00   0.00  0.00  0.00  0.00  1.00  0.00  0.00  0.28  0.00
  2                       1.00   0.76  0.00  0.00  0.00  0.24  0.00  0.00  0.02  0.00
  3                       1.00   0.13  0.00  0.00  0.00  0.87  0.00  0.00  0.21  0.00
  4                       1.00   1.00  0.00  0.00  0.00  0.00  0.00  0.00  0.00  0.00
  
  
  *************************
  Conduit Surcharge Summary
  *************************
  
  ----------------------------------------------------------------------------
                                                           Hours        Hours 
                         --------- Hours Full --------   Above Full   Capacity
  Conduit                Both Ends  Upstream  Dnstream   Normal Flow   Limited
  ----------------------------------------------------------------------------
  WS02006229WS02006228        0.81      1.29      0.81      3.32         0.81
  WS02006256WS02006235        5.24      5.24      6.86      3.78         0.01
  WS02006252WS02006251        1.26      1.26      1.45      1.40         0.01
  WS02006251WS02006249        0.01      0.01      0.01      1.25         0.01
  WS02006249WS02006248        0.01      0.01      0.01      3.11         0.01
  WS02006247WS02006245        0.01      0.01      0.01      3.31         0.01
  WS02006245WS02006243        0.01      0.01      0.14      0.03         0.01
  WS02006243WS02006242        0.26      0.26      1.13      0.01         0.01
  WS02006242WS02006240        0.34      0.34      1.19      1.36         0.01
  WS02006240WS02006239        0.36      0.36      0.38      0.01         0.01
  WS02006239WS02006238        1.17      1.17      1.18      0.75         0.75
  WS02006238WS02006235        1.15      1.15      1.26      0.01         0.01
  WS02006235WS02006234        0.38      0.38      0.42      5.24         0.01
  WS02006234WS02006232        0.40      0.40      1.29      0.01         0.01
  WS02006232WS02006231        0.07      0.07      1.29      0.01         0.01
  WS02006231WS02006230        0.01      0.01      0.17      5.30         0.01
  WS02006230WS02006229        1.50      3.11      1.50      5.94         1.50
  WS02006228WS02006109        1.26      1.42      1.26      3.91         1.26
  WS02006112WS02006115        0.01      0.01      0.43      0.01         0.01
  WS02006111WS02006112        0.01      0.01      3.33      0.01         0.01
  WS02006110WS02006113        0.01      0.01      1.35      0.01         0.01
  WS02006109WS02006110        0.39      0.39      1.41      0.40         0.01
  WS02004405WS02004406        0.01      0.01      0.01      0.40         0.01
  WS02004404WS02004405        0.01      0.01      0.01      5.94         0.01
  WS02003072WS02003073        0.01      0.01      0.01      4.44         0.01
  YS02001759YS02001757        5.53      5.53      5.64      0.01         0.01
  YS02001762YS02001759        5.50      5.50      5.53      0.01         0.01
  YS02001765YS02001762        5.45      5.45      5.50      0.01         0.01
  YS02001770YS02001767        5.40      5.40      5.40      0.01         0.54
  YS02001774YS02001770        5.32      5.32      5.48      0.01         0.01
  YS02001779YS02001774        5.13      5.13      5.48      0.01         0.01
  YS02001649YS02001757        5.50      5.50      5.64      0.01         0.01
  YS02001767YS02001765        5.40      5.40      5.45      0.01         0.01
  YS02006561YS02001783        0.01      0.01      0.23      0.01         0.01
  YS02001783YS02001784        0.23      0.23      0.42      0.01         0.01
  YS02001784YS02001785        0.26      0.42      0.26      1.10         0.25
  YS02001788YS02001790        0.17      0.17      1.79      0.01         0.01
  YS02001790YS02001791        1.79      1.79      1.91      0.01         0.01
  YS02001791YS02001793        1.91      1.91      2.18      0.01         0.01
  YS02001910YS02001907        0.01      0.01      0.34      0.01         0.01
  YS02001786YS02001788        0.17      0.26      0.17      0.60         0.15
  YS02001629YS02163301        5.30      5.30      5.39      0.01         0.01
  YS02001619YS02001622        4.80      4.80      4.88      0.01         0.01
  YS02001622YS02001625        4.88      4.88      5.26      0.01         0.01
  YS02001625YS02001629        4.83      4.83      5.26      0.01         0.01
  YS02163301YS02001633        5.39      5.39      5.46      0.01         0.01
  YS02163601YS02164001        5.46      5.46      5.51      0.01         0.01
  YS02164001YS02001641        5.46      5.46      5.47      0.01         0.01
  YS02001641YS02001644        5.47      5.47      5.47      0.01         0.65
  YS02001647YS02001649        5.24      5.24      5.50      0.01         0.01
  YS02006553YS02006556        0.01      0.01      0.47      0.01         0.01
  YS02006556YS02006558        0.05      0.05      0.58      0.01         0.01
  YS02001907YS02006553        1.14      1.14      1.35      0.01         0.01
  YS02006558YS02006561        0.01      0.01      0.01      0.91         0.01
  YS02001633YS02163601        5.44      5.44      5.51      0.01         0.01
  YS02001644YS02001647        5.24      5.24      5.47      0.01         0.01
  YS02001745YS02001748        0.01      0.01      4.23      0.01         0.01
  YS02001748YS02001751        4.57      4.57      4.85      0.01         0.01
  YS02001751YS02001754        4.85      4.85      5.16      0.01         0.01
  YS02001754YS02001757        5.23      5.23      5.64      0.01         0.01
  YS02001904YS02001907        0.01      0.01      0.49      0.01         0.01
  YS02001652YS02001649        5.25      5.25      5.50      0.01         0.01
  YS02001655YS02001652        4.86      4.86      5.22      0.01         0.01
  YS02001658YS02001655        4.30      4.30      4.86      0.01         0.01
  YS02001661YS02001658        0.08      0.08      4.30      0.01         0.01
  YS02001664YS02001661        0.01      0.01      0.79      0.01         0.01
  YS02001793JiankangQianchi        2.11      2.11      2.90      0.01         0.01
  YS02001757CaochengTiaoxuchi        4.58      4.58      5.64      0.01         0.01
  
  
  ***************
  Pumping Summary
  ***************
  
  ---------------------------------------------------------------------------------------------------------
                                                  Min       Avg       Max     Total     Power    % Time Off
                        Percent   Number of      Flow      Flow      Flow    Volume     Usage    Pump Curve
  Pump                 Utilized   Start-Ups       LPS       LPS       LPS  10^6 ltr     Kw-hr    Low   High
  ---------------------------------------------------------------------------------------------------------
  CC-Pump-1               24.54           3      0.00    161.26    200.00     1.105      2.79    0.0   30.7
  CC-Pump-2               47.95           4      0.00    172.35    200.00     2.305      3.56    0.0   15.7
  JK-Pump-1               65.95           2      0.00    193.67    300.00     3.382     41.38    0.0    0.0
  JK-Pump-2               55.33           2      0.00    143.90    300.00     1.484     28.24    0.0    0.0
  XR-Pump-1               55.31           3      0.00     83.79     95.00     1.339      6.63    0.0    0.0
  XR-Pump-2               89.36           1      0.00     90.26     95.00     2.309     15.14    0.0    0.0
  XR-Pump-3               78.72           1      0.00     94.58     95.00     2.080     10.61    0.0    0.0
  XR-Pump-4               57.44           4      0.00     77.71     95.00     1.368     10.66    0.0    0.0
  

  Analysis begun on:  Thu Dec 23 15:33:39 2021
  Analysis ended on:  Thu Dec 23 15:33:41 2021
  Total elapsed time: 00:00:02