
  EPA STORM WATER MANAGEMENT MODEL - VERSION 5.1 (Build 5.3.0.dev0)
  --------------------------------------------------------------

  WARNING 04: minimum elevation drop used for Conduit WS02004404WS02004405
  WARNING 03: negative offset ignored for Link YS02001904YS02001907
  
  *********************************************************
  NOTE: The summary statistics displayed in this report are
  based on results found at every computational time step,  
  not just on results from each reporting time step.
  *********************************************************
  
  ****************
  Analysis Options
  ****************
  Flow Units ............... LPS
  Process Models:
    Rainfall/Runoff ........ YES
    RDII ................... NO
    Snowmelt ............... NO
    Groundwater ............ NO
    Flow Routing ........... YES
    Ponding Allowed ........ NO
    Water Quality .......... NO
  Infiltration Method ...... HORTON
  Flow Routing Method ...... DYNWAVE
  Surcharge Method ......... EXTRAN
  Starting Date ............ 08/28/2015 08:00:00
  Ending Date .............. 08/28/2015 15:50:00
  Antecedent Dry Days ...... 8.0
  Report Time Step ......... 00:01:00
  Wet Time Step ............ 00:01:00
  Dry Time Step ............ 00:01:00
  Routing Time Step ........ 5.00 sec
  Variable Time Step ....... YES
  Maximum Trials ........... 8
  Number of Threads ........ 4
  Head Tolerance ........... 0.001500 m
  
  
  **************************        Volume         Depth
  Runoff Quantity Continuity     hectare-m            mm
  **************************     ---------       -------
  Total Precipitation ......         5.556        12.164
  Evaporation Loss .........         0.000         0.000
  Infiltration Loss ........         1.427         3.124
  Surface Runoff ...........         3.072         6.726
  Final Storage ............         1.058         2.316
  Continuity Error (%) .....        -0.016
  
  
  **************************        Volume        Volume
  Flow Routing Continuity        hectare-m      10^6 ltr
  **************************     ---------     ---------
  Dry Weather Inflow .......         0.616         6.165
  Wet Weather Inflow .......         3.071        30.708
  Groundwater Inflow .......         0.000         0.000
  RDII Inflow ..............         0.000         0.000
  External Inflow ..........         0.102         1.024
  External Outflow .........         2.543        25.426
  Flooding Loss ............         0.832         8.322
  Evaporation Loss .........         0.000         0.000
  Exfiltration Loss ........         0.000         0.000
  Initial Stored Volume ....         0.076         0.761
  Final Stored Volume ......         0.602         6.021
  Continuity Error (%) .....        -2.875
  
  
  *************************
  Highest Continuity Errors
  *************************
  Node HS02004842 (16.24%)
  Node JK-storage (-11.68%)
  Node YS02001884 (11.61%)
  Node YS02001774 (4.16%)
  Node YSB1171 (3.12%)
  
  
  ***************************
  Time-Step Critical Elements
  ***************************
  Link 3 (59.59%)
  Link WS02006252WS02006251 (31.04%)
  Link WS02006238WS02006235 (2.85%)
  Link WS02006280WS02006229 (1.38%)
  
  
  ********************************
  Highest Flow Instability Indexes
  ********************************
  Link YS02001619YS02001622 (42)
  Link YS02163601YS02164001 (39)
  Link YS02001629YS02163301 (39)
  Link YS02163301YS02001633 (39)
  Link YS02164001YS02001641 (37)
  
  
  *************************
  Routing Time Step Summary
  *************************
  Minimum Time Step           :     0.24 sec
  Average Time Step           :     0.75 sec
  Maximum Time Step           :     5.00 sec
  Percent in Steady State     :    -0.00
  Average Iterations per Step :     4.76
  Percent Not Converging      :    24.43
  
  
  ***************************
  Subcatchment Runoff Summary
  ***************************
  
  ------------------------------------------------------------------------------------------------------------------------------
                            Total      Total      Total      Total     Imperv       Perv      Total       Total     Peak  Runoff
                           Precip      Runon       Evap      Infil     Runoff     Runoff     Runoff      Runoff   Runoff   Coeff
  Subcatchment                 mm         mm         mm         mm         mm         mm         mm    10^6 ltr      LPS
  ------------------------------------------------------------------------------------------------------------------------------
  sub0                      12.16       0.00       0.00       0.85      10.05       0.00      10.05        0.01     1.91   0.826
  sub1                      12.16       0.00       0.00       1.34       9.56       0.00       9.56        0.06    14.15   0.786
  sub2                      12.16       0.00       0.00       4.50       6.75       0.00       6.75        0.06    13.75   0.555
  sub3                      12.16       0.00       0.00       4.50       6.71       0.00       6.71        0.15    32.07   0.552
  sub4                      12.16       0.00       0.00       1.34       9.40       0.00       9.40        0.20    40.20   0.773
  sub5                      12.16       0.00       0.00       0.85       9.99       0.00       9.99        0.11    25.19   0.822
  sub7                      12.16       0.00       0.00       1.09       9.81       0.00       9.81        0.03     7.55   0.807
  sub8                      12.16       0.00       0.00       1.09       9.80       0.00       9.80        0.06    14.17   0.806
  sub9                      12.16       0.00       0.00       1.09       9.80       0.00       9.80        0.05    10.64   0.806
  sub10                     12.16       0.00       0.00       0.97       9.89       0.00       9.89        0.11    24.40   0.813
  sub11                     12.16       0.00       0.00       0.97       9.91       0.00       9.91        0.12    26.15   0.815
  sub12                     12.16       0.00       0.00       1.58       9.39       0.00       9.39        0.08    19.06   0.772
  sub14                     12.16       0.00       0.00       1.09       9.80       0.00       9.80        0.09    21.02   0.805
  sub15                     12.16       0.00       0.00       3.65       7.53       0.00       7.53        0.13    29.11   0.619
  sub16                     12.16       0.00       0.00       4.01       7.23       0.00       7.23        0.08    17.47   0.594
  sub17                     12.16       0.00       0.00       3.89       7.34       0.00       7.34        0.06    14.47   0.603
  sub22                     12.16       0.00       0.00       5.23       6.14       0.00       6.14        0.39    88.27   0.505
  sub23                     12.16       0.00       0.00       4.50       6.79       0.00       6.79        0.32    73.89   0.558
  sub60                     12.16       0.00       0.00       1.46       7.71       0.00       7.71        2.34   297.17   0.634
  sub61                     12.16       0.00       0.00       2.07       7.87       0.00       7.87        2.43   359.80   0.647
  sub62                     12.16       0.00       0.00       0.97       8.55       0.00       8.55        2.63   372.87   0.703
  sub63                     12.16       0.00       0.00       3.53       6.89       0.00       6.89        2.09   327.80   0.567
  sub64                     12.16       0.00       0.00       1.82       7.40       0.00       7.40        2.25   282.66   0.608
  sub65                     12.16       0.00       0.00       1.58       7.52       0.00       7.52        2.31   287.20   0.618
  sub66                     12.16       0.00       0.00       3.53       6.36       0.00       6.36        1.95   257.27   0.523
  sub67                     12.16       0.00       0.00       0.97       9.05       0.00       9.05        2.79   452.90   0.744
  sub68                     12.16       0.00       0.00       1.70       8.28       0.00       8.28        2.55   391.99   0.681
  sub69                     12.16       0.00       0.00       1.82       8.61       0.00       8.61        2.01   355.79   0.708
  sub70                     12.16       8.79       0.00       7.03      11.43       0.10      11.53        2.64   335.00   0.550
  sub71                     12.16       0.00       0.00       0.97       8.31       0.00       8.31        1.96   263.63   0.683
  sub72                     12.16       0.00       0.00       0.85       6.56       0.00       6.56        1.34   129.40   0.540
  sub73                     12.16      11.23       0.00       7.88      12.47       0.08      12.54        2.95   300.52   0.536
  sub74                     12.16       0.00       0.00       9.12       2.57       0.00       2.57        1.03   189.59   0.211
  
  
  ******************
  Node Depth Summary
  ******************
  
  ---------------------------------------------------------------------------------
                                 Average  Maximum  Maximum  Time of Max    Reported
                                   Depth    Depth      HGL   Occurrence   Max Depth
  Node                 Type       Meters   Meters   Meters  days hr:min      Meters
  ---------------------------------------------------------------------------------
  WS02001211           JUNCTION     0.71     0.80     5.64     0  03:10        0.80
  WS02001212           JUNCTION     0.43     0.52     5.58     0  03:11        0.52
  WS02001213           JUNCTION     0.67     0.78     5.54     0  03:11        0.78
  WS02003069           JUNCTION     0.49     0.62     5.20     0  03:11        0.62
  WS02003072           JUNCTION     0.55     0.67     5.04     0  03:12        0.67
  WS02003073           JUNCTION     0.34     0.42     4.48     0  03:12        0.42
  WS02003060           JUNCTION     0.44     0.54     5.48     0  03:11        0.54
  WS02003066           JUNCTION     0.26     0.33     5.88     0  03:05        0.33
  WS02003059           JUNCTION     0.72     0.83     5.52     0  03:11        0.83
  WS02003067           JUNCTION     0.62     0.75     6.07     0  03:04        0.75
  WS02004401           JUNCTION     0.74     0.99     6.99     0  03:03        0.99
  WS02004402           JUNCTION     0.77     1.01     6.97     0  03:03        1.01
  WS02004403           JUNCTION     0.79     1.01     6.94     0  03:03        1.01
  WS02004404           JUNCTION     0.86     1.07     6.92     0  03:03        1.07
  WS02004406           JUNCTION     0.86     1.04     6.87     0  03:03        1.04
  WS02004409           JUNCTION     0.56     0.77     6.54     0  03:03        0.76
  WS02004410           JUNCTION     0.58     0.77     6.49     0  03:04        0.77
  WS02004411           JUNCTION     0.59     0.77     6.45     0  03:04        0.77
  WS02004412           JUNCTION     0.60     0.77     6.41     0  03:04        0.77
  WS02004413           JUNCTION     0.75     0.92     6.39     0  03:04        0.92
  WS02004405           JUNCTION     0.86     1.06     6.91     0  03:03        1.06
  WS02006109           JUNCTION     0.83     1.12     7.74     0  03:00        1.11
  WS02006110           JUNCTION     0.81     1.02     7.61     0  02:55        1.01
  WS02006111           JUNCTION     0.25     0.39     7.10     0  03:03        0.39
  WS02006112           JUNCTION     0.92     1.22     7.10     0  03:02        1.21
  WS02006113           JUNCTION     0.38     0.52     7.41     0  03:01        0.52
  WS02006115           JUNCTION     0.64     0.91     7.05     0  03:02        0.91
  WS02006116           JUNCTION     0.72     0.99     7.03     0  03:02        0.99
  WS02006230           JUNCTION     0.84     1.20     7.94     0  03:01        1.20
  WS02006231           JUNCTION     0.57     0.85     7.98     0  03:01        0.85
  WS02006232           JUNCTION     0.71     0.98     8.02     0  03:02        0.97
  WS02006234           JUNCTION     0.64     0.89     8.05     0  02:59        0.89
  WS02006235           JUNCTION     0.68     0.93     8.09     0  03:00        0.92
  WS02006238           JUNCTION     0.71     0.95     8.10     0  02:59        0.94
  WS02006240           JUNCTION     0.61     0.84     8.13     0  02:59        0.84
  WS02006242           JUNCTION     0.67     0.89     8.16     0  02:59        0.89
  WS02006243           JUNCTION     0.56     0.77     8.19     0  03:00        0.77
  WS02006245           JUNCTION     0.54     0.73     8.22     0  03:00        0.73
  WS02006247           JUNCTION     0.55     0.73     8.23     0  03:01        0.73
  WS02006248           JUNCTION     0.49     0.66     8.25     0  03:01        0.66
  WS02006249           JUNCTION     0.51     0.67     8.26     0  03:01        0.67
  WS02006239           JUNCTION     0.67     0.90     8.11     0  02:59        0.90
  WS02006251           JUNCTION     0.52     0.72     8.39     0  03:01        0.72
  WS02006252           JUNCTION     0.46     0.59     8.84     0  02:46        0.59
  WS02006253           JUNCTION     0.54     0.75     8.39     0  03:01        0.75
  WS02006256           JUNCTION     1.11     2.35     9.28     0  00:00        1.22
  WS02004138           JUNCTION     0.17     0.20     7.45     0  00:00        0.19
  WS02004407           JUNCTION     0.25     0.33     6.65     0  03:03        0.33
  WS02006228           JUNCTION     0.85     1.19     7.84     0  03:01        1.18
  WS02006229           JUNCTION     0.83     1.20     7.90     0  03:02        1.20
  WS02006280           JUNCTION     0.07     0.19     8.46     0  03:02        0.19
  WS02006284           JUNCTION     0.38     0.55     8.95     0  03:02        0.55
  WS02006287           JUNCTION     0.11     0.28     9.24     0  03:01        0.28
  WSF200               JUNCTION     0.25     0.36     5.59     0  03:05        0.36
  HS02004901           JUNCTION     0.13     0.28    10.10     0  03:01        0.28
  HS02004881           JUNCTION     0.01     0.04     9.07     0  03:01        0.04
  HS02004876           JUNCTION     0.05     0.12     9.15     0  03:01        0.12
  HS02004870           JUNCTION     0.02     0.06     9.35     0  03:01        0.06
  HS02004862           JUNCTION     0.02     0.07     9.46     0  03:01        0.07
  HS02004856           JUNCTION     0.08     0.13     9.55     0  03:01        0.13
  HS02004852           JUNCTION     0.01     0.05     9.56     0  03:01        0.05
  HS02004848           JUNCTION     0.01     0.05     9.65     0  03:01        0.05
  HS02004842           JUNCTION     0.34     0.38     9.65     0  03:01        0.38
  HS02004837           JUNCTION     0.03     0.07     9.65     0  03:01        0.07
  HS02004830           JUNCTION     0.04     0.08     9.55     0  03:01        0.08
  HS02004824           JUNCTION     0.03     0.06     9.46     0  03:01        0.06
  HS02004817           JUNCTION     0.45     0.60     9.44     0  03:01        0.60
  HS02004807           JUNCTION     0.13     0.27     9.44     0  03:01        0.27
  HS02004802           JUNCTION     0.17     0.30     9.43     0  03:01        0.30
  HS02004799           JUNCTION     0.13     0.33     9.54     0  03:01        0.33
  HS02004792           JUNCTION     0.04     0.14     9.66     0  03:01        0.14
  HS02004788           JUNCTION     0.03     0.10    10.00     0  03:01        0.10
  HS02004785           JUNCTION     0.05     0.17    10.07     0  03:01        0.17
  HS02004777           JUNCTION     0.16     0.30    10.10     0  03:01        0.30
  HS02004770           JUNCTION     0.13     0.27    10.10     0  03:01        0.27
  HS02004480           JUNCTION     0.09     0.26     9.50     0  03:01        0.26
  HS02004479           JUNCTION     0.13     0.30     9.50     0  03:01        0.30
  HS02004478           JUNCTION     0.07     0.18     9.41     0  03:01        0.18
  YS02001745           JUNCTION     0.67     0.87     8.39     0  04:02        0.86
  YS02001748           JUNCTION     1.06     2.27     9.35     0  02:45        1.42
  YS02001751           JUNCTION     1.24     2.18     9.06     0  02:46        1.68
  YS02001754           JUNCTION     1.50     2.13     8.74     0  02:46        1.94
  YS02001762           JUNCTION     1.70     2.08     8.48     0  02:46        2.02
  YS02001765           JUNCTION     1.65     2.02     8.47     0  02:46        1.97
  YS02001767           JUNCTION     1.62     1.97     8.46     0  02:46        1.92
  YS02001770           JUNCTION     1.61     1.95     8.44     0  02:46        1.91
  YS02001774           JUNCTION     1.68     2.01     8.43     0  02:46        1.97
  YS02001779           JUNCTION     1.43     1.68     8.37     0  02:45        1.68
  YS02001882           JUNCTION     0.55     1.62     8.34     0  02:53        1.60
  YS02001884           JUNCTION     0.64     1.72     8.34     0  02:53        1.70
  YS02001759           JUNCTION     1.73     2.11     8.48     0  02:47        2.06
  YS02001887           JUNCTION     0.72     1.79     8.33     0  02:53        1.78
  YS02001890           JUNCTION     0.75     1.81     8.32     0  02:53        1.80
  YS02001898           JUNCTION     0.52     1.56     8.29     0  02:53        1.55
  YS02001901           JUNCTION     0.64     1.67     8.28     0  02:53        1.66
  YS02001904           JUNCTION     0.61     1.64     8.27     0  02:53        1.63
  YS02001907           JUNCTION     0.95     1.96     8.25     0  02:53        1.96
  YS02001910           JUNCTION     0.74     1.78     8.29     0  02:54        1.77
  YS02001915           JUNCTION     0.53     1.59     8.31     0  02:54        1.58
  YS02001918           JUNCTION     0.27     1.27     8.34     0  02:54        1.27
  YS02001619           JUNCTION     1.21     1.61     8.54     0  02:43        1.47
  YS02001629           JUNCTION     1.57     1.85     8.40     0  02:43        1.84
  YS02001641           JUNCTION     1.67     1.96     8.39     0  02:47        1.93
  YS02001644           JUNCTION     1.67     1.92     8.35     0  02:46        1.92
  YS02001652           JUNCTION     1.51     2.16     8.76     0  03:00        2.02
  YS02001655           JUNCTION     1.27     2.20     9.05     0  03:00        1.94
  YS02001920           JUNCTION     0.37     1.35     8.36     0  02:54        1.33
  YS02001923           JUNCTION     0.21     1.11     8.37     0  02:54        1.11
  YS02001926           JUNCTION     0.27     0.92     8.37     0  02:54        0.89
  YS02001929           JUNCTION     0.15     0.70     8.39     0  02:54        0.63
  YS02001658           JUNCTION     1.00     2.30     9.44     0  03:05        1.79
  YS02001661           JUNCTION     0.78     2.46     9.86     0  03:05        1.81
  YS02001664           JUNCTION     0.33     0.57     8.49     0  04:08        0.56
  YS02001622           JUNCTION     1.24     1.60     8.50     0  02:43        1.49
  YS02001633           JUNCTION     1.66     1.98     8.44     0  02:47        1.94
  YS02001649           JUNCTION     1.71     2.05     8.44     0  02:58        2.05
  YS02001757           JUNCTION     1.83     2.21     8.47     0  02:46        2.16
  YS02001895           JUNCTION     0.51     1.56     8.31     0  02:53        1.55
  YS02001625           JUNCTION     1.52     1.78     8.38     0  02:42        1.78
  YS02163301           JUNCTION     1.60     1.90     8.42     0  02:47        1.87
  YS02163601           JUNCTION     1.71     2.03     8.43     0  02:47        1.98
  YS02164001           JUNCTION     1.65     1.96     8.42     0  02:47        1.91
  YS02001647           JUNCTION     1.50     1.81     8.42     0  02:47        1.79
  YSB1154              JUNCTION     0.27     0.45     9.51     0  03:01        0.45
  YSB6556              JUNCTION     0.16     0.34     9.51     0  03:01        0.34
  YSB1174              JUNCTION     0.22     0.40     9.51     0  03:01        0.40
  YSB1171              JUNCTION     0.42     0.60     9.51     0  03:01        0.60
  YS02006553           JUNCTION     0.95     1.96     8.25     0  02:56        1.96
  YS02006561           JUNCTION     0.32     1.09     7.75     0  02:53        1.07
  YS02006556           JUNCTION     0.91     1.92     8.23     0  03:00        1.91
  YS02006558           JUNCTION     0.96     1.96     8.22     0  02:58        1.95
  YS02001783           JUNCTION     0.54     2.40     8.54     0  02:42        1.46
  YS02001784           JUNCTION     0.56     2.29     8.36     0  02:42        1.41
  YS02001786           JUNCTION     0.49     1.91     7.94     0  02:42        1.25
  YS02001788           JUNCTION     0.42     2.12     8.09     0  02:42        1.12
  YS02001790           JUNCTION     0.52     1.96     7.60     0  02:41        1.29
  YS02001791           JUNCTION     0.47     1.66     7.13     0  02:42        1.27
  YS02001793           JUNCTION     0.61     2.03     6.87     0  02:42        1.80
  WS02004139           JUNCTION     0.65     0.74     5.65     0  02:30        0.74
  WSC                  OUTFALL      0.34     0.42     1.09     0  03:12        0.42
  3                    OUTFALL      0.14     0.23     6.23     0  00:00        0.22
  4                    OUTFALL      0.06     0.17     7.17     0  03:01        0.17
  5                    OUTFALL      0.00     0.00     5.00     0  00:00        0.00
  JK-storage           STORAGE      2.11     5.80     6.60     0  02:42        5.80
  CC-storage           STORAGE      1.03     1.38     8.38     0  04:02        1.38
  XR-storage           STORAGE      6.06     7.72     5.72     0  03:18        7.72
  
  
  *******************
  Node Inflow Summary
  *******************
  
  -------------------------------------------------------------------------------------------------
                                  Maximum  Maximum                  Lateral       Total        Flow
                                  Lateral    Total  Time of Max      Inflow      Inflow     Balance
                                   Inflow   Inflow   Occurrence      Volume      Volume       Error
  Node                 Type           LPS      LPS  days hr:min    10^6 ltr    10^6 ltr     Percent
  -------------------------------------------------------------------------------------------------
  WS02001211           JUNCTION      7.35   388.47     0  04:10       0.207        8.35       0.419
  WS02001212           JUNCTION      0.00   389.43     0  04:10           0        8.32       0.249
  WS02001213           JUNCTION      0.00   390.48     0  04:10           0         8.3       0.318
  WS02003069           JUNCTION      0.32  1035.32     0  03:11     0.00902        17.9       0.187
  WS02003072           JUNCTION      0.00  1034.94     0  03:11           0        17.8       0.225
  WS02003073           JUNCTION      1.82  1036.61     0  03:12      0.0514        17.9       0.254
  WS02003060           JUNCTION     16.53  1035.58     0  03:10       0.466        17.9       0.178
  WS02003066           JUNCTION      0.00   679.85     0  03:05           0        9.21       0.055
  WS02003059           JUNCTION      0.00   392.28     0  04:10           0        8.27       0.457
  WS02003067           JUNCTION      0.00   679.73     0  03:04           0        9.22       0.112
  WS02004401           JUNCTION      0.00   682.17     0  03:03           0        9.48       0.255
  WS02004402           JUNCTION      0.00   680.81     0  03:03           0        9.46       0.238
  WS02004403           JUNCTION      0.00   680.73     0  03:03           0        9.44       0.214
  WS02004404           JUNCTION      0.16   680.98     0  03:03     0.00457        9.42       0.158
  WS02004406           JUNCTION      0.00   681.16     0  03:03           0        9.38       0.383
  WS02004409           JUNCTION      0.00   681.04     0  03:03           0        9.34       0.209
  WS02004410           JUNCTION      0.00   680.45     0  03:03           0        9.32       0.232
  WS02004411           JUNCTION      0.00   680.14     0  03:04           0         9.3       0.234
  WS02004412           JUNCTION      0.00   679.96     0  03:04           0        9.28       0.248
  WS02004413           JUNCTION      0.00   679.79     0  03:04           0        9.25       0.360
  WS02004405           JUNCTION      0.04   681.07     0  03:03     0.00107        9.41       0.237
  WS02006109           JUNCTION      1.23   672.83     0  03:02      0.0347        9.56       0.248
  WS02006110           JUNCTION      0.00   672.72     0  03:02           0        9.54       0.230
  WS02006111           JUNCTION      0.00   704.16     0  03:02           0         9.5       0.055
  WS02006112           JUNCTION     14.47   684.27     0  03:02      0.0629        9.56       0.322
  WS02006113           JUNCTION      0.00   672.96     0  03:02           0        9.51       0.124
  WS02006115           JUNCTION      0.00   685.24     0  03:02           0        9.53       0.253
  WS02006116           JUNCTION      0.00   683.36     0  03:02           0        9.51       0.240
  WS02006230           JUNCTION     10.28   402.71     0  05:30        0.29        7.68       0.202
  WS02006231           JUNCTION      0.00   392.78     0  05:30           0        7.41       0.199
  WS02006232           JUNCTION      0.00   392.78     0  05:30           0        7.42       0.240
  WS02006234           JUNCTION      0.00   393.00     0  05:30           0        7.43       0.143
  WS02006235           JUNCTION      0.00   392.98     0  05:30           0        7.47       0.166
  WS02006238           JUNCTION      0.00   331.72     0  05:20           0        5.54       0.163
  WS02006240           JUNCTION      0.00   332.96     0  05:20           0        5.55       0.292
  WS02006242           JUNCTION      0.00   342.19     0  02:01           0        5.56       0.337
  WS02006243           JUNCTION      0.00   355.16     0  02:01           0        5.56       0.192
  WS02006245           JUNCTION      0.00   363.57     0  02:01           0        5.58       0.227
  WS02006247           JUNCTION      0.00   370.26     0  02:00           0        5.59       0.190
  WS02006248           JUNCTION      0.00   375.73     0  02:00           0        5.59       0.138
  WS02006249           JUNCTION      0.00   481.19     0  03:01           0        7.14       0.207
  WS02006239           JUNCTION      0.00   332.49     0  05:20           0        5.54       0.266
  WS02006251           JUNCTION      0.08   481.33     0  03:01     0.00217        7.18       0.200
  WS02006252           JUNCTION      0.00   400.00     0  02:00           0         6.8       0.008
  WS02006253           JUNCTION      1.91    81.00     0  03:01     0.00814       0.384       2.201
  WS02006256           JUNCTION      0.00   600.00     0  00:00           0        8.04       0.030
  WS02004138           JUNCTION      0.00   380.00     0  00:00           0        8.18       0.070
  WS02004407           JUNCTION      0.00   681.43     0  03:03           0        9.35       0.094
  WS02006228           JUNCTION      0.00   671.56     0  03:02           0        9.54       0.178
  WS02006229           JUNCTION      0.00   669.40     0  03:02           0        9.55       0.129
  WS02006280           JUNCTION      0.00   375.54     0  03:02           0        1.89       0.004
  WS02006284           JUNCTION      0.10   375.54     0  03:02      0.0027        1.89       0.064
  WS02006287           JUNCTION      0.00   375.26     0  03:01           0        1.89       0.037
  WSF200               JUNCTION      0.00   679.90     0  03:05           0        9.21       0.056
  HS02004901           JUNCTION     17.47    17.47     0  03:01      0.0757      0.0759       2.380
  HS02004881           JUNCTION      7.55    79.19     0  03:01      0.0331       0.357       0.082
  HS02004876           JUNCTION     14.15    72.10     0  03:01      0.0636       0.324       0.171
  HS02004870           JUNCTION     14.17    58.27     0  03:01      0.0626       0.261       0.043
  HS02004862           JUNCTION     13.95    44.46     0  03:01      0.0685       0.198       0.089
  HS02004856           JUNCTION     10.64    30.79     0  03:01      0.0471       0.131       1.117
  HS02004852           JUNCTION      0.00    20.44     0  03:01           0       0.084       0.069
  HS02004848           JUNCTION     32.07    32.07     0  03:01       0.151       0.151       0.033
  HS02004842           JUNCTION      0.00    11.42     0  03:01           0      0.0801      19.388
  HS02004837           JUNCTION     30.75    41.91     0  03:01       0.288       0.355       0.230
  HS02004830           JUNCTION      0.15    41.84     0  03:01     0.00423       0.346       0.358
  HS02004824           JUNCTION     40.25    81.79     0  03:01       0.197       0.542       0.100
  HS02004817           JUNCTION      0.60    82.18     0  03:01      0.0169       0.558       3.079
  HS02004807           JUNCTION     26.15   107.24     0  03:01       0.115       0.657       0.656
  HS02004802           JUNCTION      0.00   106.49     0  03:01           0       0.653       0.618
  HS02004799           JUNCTION     21.02   227.51     0  03:01      0.0932        1.06       0.236
  HS02004792           JUNCTION     88.55   207.32     0  03:01       0.396       0.966       0.043
  HS02004788           JUNCTION     30.78   119.37     0  03:01       0.177       0.571       0.068
  HS02004785           JUNCTION      0.15    89.79     0  03:01     0.00423       0.396       0.125
  HS02004777           JUNCTION      0.03    90.24     0  03:01    0.000846       0.397       1.326
  HS02004770           JUNCTION     73.89    90.93     0  03:01       0.324       0.398       0.787
  HS02004480           JUNCTION      0.00   269.27     0  03:01           0        1.25       0.099
  HS02004479           JUNCTION      0.00    42.82     0  03:02           0       0.204       0.360
  HS02004478           JUNCTION      0.00   375.17     0  03:01           0        1.89       0.018
  YS02001745           JUNCTION    297.18   379.89     0  02:46        2.34        2.34       0.365
  YS02001748           JUNCTION      0.04   594.12     0  02:45     0.00127        2.34       0.974
  YS02001751           JUNCTION      0.01   328.23     0  02:38     0.00031        2.31       1.021
  YS02001754           JUNCTION      0.26   308.47     0  03:01     0.00733        2.29       1.086
  YS02001762           JUNCTION      0.00   360.50     0  02:58           0        2.03       1.047
  YS02001765           JUNCTION      0.00   360.49     0  02:58           0        2.03       1.213
  YS02001767           JUNCTION      0.54   360.64     0  02:58      0.0151        2.05       1.773
  YS02001770           JUNCTION    373.02   373.02     0  03:01        2.63        2.65       1.209
  YS02001774           JUNCTION      0.00   186.36     0  04:07           0       0.602       4.344
  YS02001779           JUNCTION      0.01   186.53     0  04:07    0.000141        0.57       2.776
  YS02001882           JUNCTION      0.00    28.39     0  02:46           0      0.0169      14.887
  YS02001884           JUNCTION      0.00    49.88     0  02:44           0      0.0524      13.135
  YS02001759           JUNCTION    359.84   710.12     0  02:59        2.43        4.41       0.521
  YS02001887           JUNCTION    453.35   453.50     0  03:01         2.8        2.83       0.300
  YS02001890           JUNCTION      0.00   453.58     0  03:01           0        2.79       0.328
  YS02001898           JUNCTION      0.00   453.52     0  03:01           0        2.77       0.119
  YS02001901           JUNCTION      0.00   453.88     0  03:01           0        2.77       0.245
  YS02001904           JUNCTION      0.00   453.70     0  03:01           0        2.77       0.224
  YS02001907           JUNCTION      0.00   879.77     0  02:59           0        6.12       0.405
  YS02001910           JUNCTION      0.00   460.07     0  02:55           0        3.37       0.350
  YS02001915           JUNCTION    263.65   460.00     0  02:55        1.96        3.39       0.176
  YS02001918           JUNCTION      0.00   222.74     0  02:55           0        1.44       0.130
  YS02001619           JUNCTION    257.27   257.27     0  03:01        1.95        1.95       0.633
  YS02001629           JUNCTION      0.00   217.22     0  02:52           0        1.65       1.772
  YS02001641           JUNCTION      0.00   458.94     0  02:51           0        3.86       0.548
  YS02001644           JUNCTION    282.70   810.35     0  03:32        2.25        7.26       0.361
  YS02001652           JUNCTION      0.00   377.56     0  03:01           0        2.04       1.152
  YS02001655           JUNCTION      0.15   377.41     0  03:01     0.00434        2.07       1.237
  YS02001920           JUNCTION      2.87   222.65     0  02:55      0.0809        1.43       0.208
  YS02001923           JUNCTION      0.04   232.22     0  02:55     0.00106        1.34       0.048
  YS02001926           JUNCTION      0.05   196.23     0  02:54     0.00147        1.34       0.250
  YS02001929           JUNCTION    129.40   129.40     0  03:01        1.34        1.34       0.040
  YS02001658           JUNCTION      0.00   533.68     0  02:43           0        2.09       1.010
  YS02001661           JUNCTION      0.00   705.42     0  02:57           0        2.84      -0.177
  YS02001664           JUNCTION    327.80   352.46     0  02:57        2.09        2.84       0.151
  YS02001622           JUNCTION      0.00   257.47     0  03:01           0        1.94       1.667
  YS02001633           JUNCTION    287.40   458.46     0  02:51        2.32        3.92       0.826
  YS02001649           JUNCTION      0.00   977.87     0  02:52           0        5.15       0.728
  YS02001757           JUNCTION      0.00  1855.46     0  02:53           0        10.5       0.883
  YS02001895           JUNCTION      0.00   453.43     0  03:01           0        2.78       0.174
  YS02001625           JUNCTION      0.00   257.35     0  03:01           0         1.9       2.060
  YS02163301           JUNCTION      0.00   217.50     0  02:51           0        1.63       1.490
  YS02163601           JUNCTION      0.11   458.66     0  02:51      0.0031        3.88       0.779
  YS02164001           JUNCTION      0.00   458.80     0  02:51           0        3.86       0.519
  YS02001647           JUNCTION      0.00   695.96     0  02:51           0        3.81       0.742
  YSB1154              JUNCTION     25.19    25.19     0  03:01       0.113       0.114       1.285
  YSB6556              JUNCTION      0.00    24.91     0  03:01           0       0.115       1.100
  YSB1174              JUNCTION     19.06    19.06     0  03:01      0.0821      0.0827       1.581
  YSB1171              JUNCTION      0.00    43.19     0  03:01           0       0.203       3.220
  YS02006553           JUNCTION      0.00   667.07     0  03:17           0         5.9       0.265
  YS02006561           JUNCTION      0.00   964.07     0  03:00           0        8.42       0.009
  YS02006556           JUNCTION      0.00   666.99     0  03:17           0         5.9       0.191
  YS02006558           JUNCTION    392.87   964.25     0  03:00        2.57        8.45       0.063
  YS02001783           JUNCTION      0.00   964.11     0  03:00           0        8.42       0.027
  YS02001784           JUNCTION      1.06   965.15     0  03:00      0.0299        8.45       0.045
  YS02001786           JUNCTION      0.06   965.20     0  03:00     0.00159        8.44       0.041
  YS02001788           JUNCTION      0.07   965.25     0  03:01       0.002        8.44       0.024
  YS02001790           JUNCTION      0.15   965.52     0  03:01     0.00437        8.45       0.030
  YS02001791           JUNCTION      0.00   965.53     0  03:01           0        8.44       0.014
  YS02001793           JUNCTION      0.00   965.54     0  03:01           0        8.44       0.005
  WS02004139           JUNCTION      0.32   393.99     0  00:00     0.00905        8.18       0.490
  WSC                  OUTFALL       0.00  1036.57     0  03:12           0        17.8       0.000
  3                    OUTFALL       0.00   597.65     0  00:00           0        6.08       0.000
  4                    OUTFALL       0.00   246.99     0  03:01           0        1.54       0.000
  5                    OUTFALL       0.00     0.00     0  00:00           0           0       0.000 ltr
  JK-storage           STORAGE       0.00   965.55     0  03:00           0        8.59     -10.461
  CC-storage           STORAGE       0.00  1855.22     0  02:53           0        9.92      -0.218
  XR-storage           STORAGE     690.11   690.11     0  03:01        9.61        10.2      -0.002
  
  
  **********************
  Node Surcharge Summary
  **********************
  
  Surcharging occurs when water rises above the top of the highest conduit.
  ---------------------------------------------------------------------
                                               Max. Height   Min. Depth
                                   Hours       Above Crown    Below Rim
  Node                 Type      Surcharged         Meters       Meters
  ---------------------------------------------------------------------
  WS02004402           JUNCTION        0.11          0.009        1.731
  WS02004403           JUNCTION        0.13          0.010        2.020
  WS02004404           JUNCTION        0.79          0.070        2.710
  WS02004406           JUNCTION        0.52          0.040        2.410
  WS02004405           JUNCTION        0.67          0.057        2.743
  WS02006109           JUNCTION        3.72          0.299        1.521
  WS02006110           JUNCTION        1.26          0.113        1.737
  WS02006112           JUNCTION        1.39          0.219        1.461
  WS02006230           JUNCTION        0.74          0.116        1.454
  WS02006231           JUNCTION        1.16          0.145        1.385
  WS02006232           JUNCTION        4.04          0.280        1.200
  WS02006234           JUNCTION        1.61          0.173        1.067
  WS02006235           JUNCTION        3.32          0.217        1.073
  WS02006238           JUNCTION        3.67          0.234        1.196
  WS02006240           JUNCTION        1.65          0.129        1.261
  WS02006242           JUNCTION        3.28          0.162        0.658
  WS02006243           JUNCTION        0.95          0.060        0.710
  WS02006245           JUNCTION        0.40          0.022        0.828
  WS02006247           JUNCTION        0.48          0.024        0.736
  WS02006239           JUNCTION        1.98          0.159        1.131
  WS02006252           JUNCTION        4.33          0.193        0.907
  WS02006256           JUNCTION        0.01          1.050        0.000
  WS02006228           JUNCTION        3.59          0.363        1.837
  YS02001748           JUNCTION        4.91          1.190        0.000
  YS02001751           JUNCTION        5.15          1.178        0.022
  YS02001754           JUNCTION        5.35          1.085        0.065
  YS02001762           JUNCTION        5.63          1.081        0.069
  YS02001765           JUNCTION        5.60          1.022        0.078
  YS02001767           JUNCTION        5.51          0.971        0.059
  YS02001770           JUNCTION        5.43          0.920        0.000
  YS02001774           JUNCTION        5.63          1.012        0.038
  YS02001779           JUNCTION        5.33          0.680        0.000
  YS02001882           JUNCTION        0.78          0.621        0.209
  YS02001884           JUNCTION        0.81          0.658        0.212
  YS02001759           JUNCTION        5.66          1.114        0.096
  YS02001887           JUNCTION        0.89          0.744        0.206
  YS02001890           JUNCTION        0.93          0.760        0.000
  YS02001898           JUNCTION        0.74          0.528        0.212
  YS02001901           JUNCTION        0.86          0.671        0.199
  YS02001904           JUNCTION        0.84          0.635        0.215
  YS02001907           JUNCTION        1.50          0.950        0.000
  YS02001910           JUNCTION        0.97          0.780        0.320
  YS02001915           JUNCTION        0.77          0.589        0.411
  YS02001918           JUNCTION        0.52          0.273        0.537
  YS02001619           JUNCTION        5.18          0.610        0.000
  YS02001629           JUNCTION        5.18          0.470        0.000
  YS02001641           JUNCTION        5.61          0.955        0.145
  YS02001644           JUNCTION        5.62          0.920        0.000
  YS02001652           JUNCTION        5.40          1.130        0.000
  YS02001655           JUNCTION        5.18          1.200        0.000
  YS02001920           JUNCTION        0.55          0.350        0.790
  YS02001658           JUNCTION        4.96          1.300        0.000
  YS02001661           JUNCTION        0.22          1.390        0.000
  YS02001622           JUNCTION        5.22          0.598        0.022
  YS02001633           JUNCTION        5.60          0.961        0.099
  YS02001649           JUNCTION        5.64          1.050        0.000
  YS02001757           JUNCTION        5.74          1.210        0.000
  YS02001895           JUNCTION        0.75          0.562        0.188
  YS02001625           JUNCTION        5.40          0.780        0.000
  YS02163301           JUNCTION        5.51          0.904        0.126
  YS02163601           JUNCTION        5.64          1.031        0.049
  YS02164001           JUNCTION        5.60          0.958        0.142
  YS02001647           JUNCTION        5.40          0.806        0.094
  YS02006553           JUNCTION        1.56          0.964        0.226
  YS02006561           JUNCTION        0.65          0.290        0.860
  YS02006556           JUNCTION        1.20          0.879        0.471
  YS02006558           JUNCTION        1.16          0.857        0.543
  YS02001783           JUNCTION        1.19          1.600        0.000
  YS02001784           JUNCTION        1.26          1.490        0.000
  YS02001786           JUNCTION        1.20          1.114        0.316
  YS02001788           JUNCTION        1.18          1.317        0.163
  YS02001790           JUNCTION        1.65          1.157        0.000
  YS02001791           JUNCTION        1.68          0.863        1.057
  YS02001793           JUNCTION        1.77          1.033        1.567
  
  
  *********************
  Node Flooding Summary
  *********************
  
  Flooding refers to all water that overflows a node, whether it ponds or not.
  --------------------------------------------------------------------------
                                                             Total   Maximum
                                 Maximum   Time of Max       Flood    Ponded
                        Hours       Rate    Occurrence      Volume     Depth
  Node                 Flooded       LPS   days hr:min    10^6 ltr    Meters
  --------------------------------------------------------------------------
  WS02006256              0.01    406.11      0  00:00       0.001     0.000
  YS02001748              0.01    221.14      0  02:47       0.000     0.000
  YS02001770              0.01      5.67      0  02:47       0.000     0.000
  YS02001779              2.12    186.34      0  04:07       0.549     0.000
  YS02001890              0.01      0.51      0  02:53       0.000     0.000
  YS02001907              0.38    300.14      0  02:59       0.207     0.000
  YS02001619              0.01     14.91      0  02:43       0.000     0.000
  YS02001629              0.01     33.83      0  02:43       0.000     0.000
  YS02001644              3.25    810.30      0  03:32       4.585     0.000
  YS02001652              0.01     20.22      0  03:05       0.000     0.000
  YS02001655              0.01     19.93      0  03:00       0.000     0.000
  YS02001658              0.01     13.69      0  03:23       0.000     0.000
  YS02001661              0.01    162.72      0  03:05       0.001     0.000
  YS02001649              0.09     47.25      0  03:17       0.005     0.000
  YS02001757              0.01     20.61      0  02:47       0.000     0.000
  YS02001625              0.80    166.54      0  03:01       0.219     0.000
  YS02001783              0.01    106.91      0  02:42       0.000     0.000
  YS02001784              0.01      8.88      0  02:42       0.000     0.000
  YS02001790              0.01    109.63      0  02:41       0.000     0.000
  JK-storage              1.44    662.11      0  03:10       1.556     0.000
  XR-storage              2.42    391.55      0  03:20       1.198     0.000
  
  
  **********************
  Storage Volume Summary
  **********************
  
  --------------------------------------------------------------------------------------------------
                         Average     Avg  Evap Exfil       Maximum     Max    Time of Max    Maximum
                          Volume    Pcnt  Pcnt  Pcnt        Volume    Pcnt     Occurrence    Outflow
  Storage Unit           1000 m3    Full  Loss  Loss       1000 m3    Full    days hr:min        LPS
  --------------------------------------------------------------------------------------------------
  JK-storage               0.106      36     0     0         0.291     100       0  02:42     600.00
  CC-storage               2.881      18     0     0         3.846      25       0  04:02     400.00
  XR-storage               0.727      78     0     0         0.926     100       0  03:18     380.00
  
  
  ***********************
  Outfall Loading Summary
  ***********************
  
  -----------------------------------------------------------
                         Flow       Avg       Max       Total
                         Freq      Flow      Flow      Volume
  Outfall Node           Pcnt       LPS       LPS    10^6 ltr
  -----------------------------------------------------------
  WSC                   99.99    717.37   1036.57      17.808
  3                     95.10    297.56    597.65       6.083
  4                     66.71    102.40    246.99       1.535
  5                      0.00      0.00      0.00       0.000
  -----------------------------------------------------------
  System                65.45   1117.33   1760.63      25.426
  
  
  ********************
  Link Flow Summary
  ********************
  
  -----------------------------------------------------------------------------
                                 Maximum  Time of Max   Maximum    Max/    Max/
                                  |Flow|   Occurrence   |Veloc|    Full    Full
  Link                 Type          LPS  days hr:min     m/sec    Flow   Depth
  -----------------------------------------------------------------------------
  WS02003066WSF200     CONDUIT    679.90     0  03:05      2.83    0.11    0.27
  WS02006287WS02006284 CONDUIT    375.44     0  03:02      1.98    0.17    0.29
  WS02006284WS02006280 CONDUIT    375.54     0  03:02      2.22    0.16    0.27
  WS02006280WS02006229 CONDUIT    375.57     0  03:02      3.58    0.08    0.19
  WS02006229WS02006228 CONDUIT    671.56     0  03:02      1.34    2.22    1.00
  WS02006256WS02006235 CONDUIT    177.52     0  00:01      2.73    1.88    1.00
  WS02006253WS02006251 CONDUIT     81.00     0  03:01      0.46    0.24    1.00
  WS02006252WS02006251 CONDUIT    400.68     0  05:20      3.19    1.47    1.00
  WS02006251WS02006249 CONDUIT    481.19     0  03:01      1.26    1.39    0.98
  WS02006249WS02006248 CONDUIT    375.73     0  02:00      1.22    2.06    0.94
  WS02006248WS02006247 CONDUIT    370.26     0  02:00      1.19    0.81    0.97
  WS02006247WS02006245 CONDUIT    363.57     0  02:01      1.15    2.88    1.00
  WS02006245WS02006243 CONDUIT    355.16     0  02:01      1.20    1.05    1.00
  WS02006243WS02006242 CONDUIT    342.19     0  02:01      1.03    0.73    1.00
  WS02006242WS02006240 CONDUIT    332.96     0  05:20      0.92    1.32    1.00
  WS02006240WS02006239 CONDUIT    332.49     0  05:20      0.94    1.05    1.00
  WS02006239WS02006238 CONDUIT    331.72     0  05:20      0.90    1.06    1.00
  WS02006238WS02006235 CONDUIT    330.77     0  05:20      1.32    0.74    1.00
  WS02006235WS02006234 CONDUIT    393.00     0  05:30      1.03    4.15    1.00
  WS02006234WS02006232 CONDUIT    392.78     0  05:30      1.17    0.79    1.00
  WS02006232WS02006231 CONDUIT    392.78     0  05:30      1.06    0.82    1.00
  WS02006231WS02006230 CONDUIT    392.43     0  05:30      1.31    5.95    1.00
  WS02006230WS02006229 CONDUIT    402.49     0  05:31      1.05    8.96    1.00
  WS02006228WS02006109 CONDUIT    671.60     0  03:02      1.34    2.93    1.00
  WS02006116WS02004401 CONDUIT    682.17     0  03:03      0.87    0.94    0.99
  WS02006115WS02006116 CONDUIT    683.36     0  03:02      0.91    0.88    0.92
  WS02006113WS02006111 CONDUIT    704.16     0  03:02      2.59    0.84    0.56
  WS02006112WS02006115 CONDUIT    685.24     0  03:02      0.89    0.40    0.95
  WS02006111WS02006112 CONDUIT    672.42     0  03:02      1.72    0.32    0.74
  WS02006110WS02006113 CONDUIT    672.96     0  03:02      1.53    0.61    0.82
  WS02006109WS02006110 CONDUIT    672.72     0  03:02      1.34    1.29    1.00
  WS02004411WS02004412 CONDUIT    679.96     0  03:04      1.04    0.97    0.77
  WS02004401WS02004402 CONDUIT    680.81     0  03:03      0.87    0.82    1.00
  WS02004413WS02003067 CONDUIT    679.73     0  03:04      1.27    0.29    0.65
  WS02004412WS02004413 CONDUIT    679.79     0  03:04      0.96    0.46    0.85
  WS02004410WS02004411 CONDUIT    680.14     0  03:04      1.04    0.93    0.77
  WS02004409WS02004410 CONDUIT    680.45     0  03:03      1.05    0.88    0.77
  WS02004407WS02004409 CONDUIT    681.04     0  03:03      1.54    0.24    0.55
  WS02004406WS02004407 CONDUIT    681.43     0  03:03      1.22    0.30    0.67
  WS02004405WS02004406 CONDUIT    681.16     0  03:03      0.87    1.34    1.00
  WS02004404WS02004405 CONDUIT    681.03     0  03:03      0.87    6.67    1.00
  WS02004403WS02004404 CONDUIT    680.82     0  03:03      0.87    0.49    1.00
  WS02004402WS02004403 CONDUIT    680.73     0  03:03      0.87    0.98    1.00
  WS02004139WS02001211 CONDUIT    381.13     0  04:10      0.90    0.48    0.60
  WS02004138WS02004139 CONDUIT    393.66     0  00:00      3.65    0.08    0.44
  WS02003067WS02003066 CONDUIT    679.85     0  03:05      1.38    0.22    0.45
  WS02001213WS02003059 CONDUIT    392.28     0  04:10      0.91    0.65    0.80
  WS02001212WS02001213 CONDUIT    390.48     0  04:10      1.32    0.60    0.49
  WS02001211WS02001212 CONDUIT    389.43     0  04:10      0.78    0.30    0.66
  WS02003072WS02003073 CONDUIT   1034.79     0  03:12      1.79    2.23    0.51
  WS02003069WS02003072 CONDUIT   1034.94     0  03:11      1.67    0.50    0.54
  WS02003060WS02003069 CONDUIT   1035.00     0  03:11      1.91    0.41    0.48
  WS02003059WS02003060 CONDUIT    394.83     0  04:11      0.95    0.26    0.69
  HS02004901HS02004770 CONDUIT     17.70     0  03:01      0.07    0.07    0.39
  HS02004876HS02004881 CONDUIT     71.90     0  03:01      0.92    0.76    0.11
  HS02004870HS02004876 CONDUIT     58.03     0  03:01      0.63    0.04    0.13
  HS02004842HS02004848 CONDUIT     11.42     0  03:01      0.05    0.01    0.30
  HS02004837HS02004842 CONDUIT     11.94     0  03:02      0.41    0.01    0.32
  HS02004830HS02004837 CONDUIT     41.69     0  03:01      0.56    0.04    0.11
  HS02004824HS02004830 CONDUIT     41.67     0  03:01      0.58    0.05    0.10
  HS02004817HS02004824 CONDUIT     81.58     0  03:01      0.25    0.04    0.47
  HS02004770HS02004777 CONDUIT     90.21     0  03:01      0.32    0.16    0.41
  HS02004799HS02004480 CONDUIT    226.97     0  03:01      0.78    0.29    0.42
  HS02004792HS02004799 CONDUIT    206.60     0  03:01      0.88    0.13    0.33
  HS02004788HS02004792 CONDUIT    118.94     0  03:01      1.01    0.08    0.17
  HS02004785HS02004788 CONDUIT     89.52     0  03:02      0.66    0.67    0.19
  HS02004777HS02004785 CONDUIT     89.64     0  03:01      0.38    0.11    0.33
  HS02004480HS02004478 CONDUIT    269.12     0  03:01      1.20    1.13    0.32
  HS02004479HS02004480 CONDUIT     44.17     0  03:02      0.23    0.04    0.40
  HS02004862HS02004870 CONDUIT     44.23     0  03:01      0.64    0.05    0.10
  HS02004848HS02004852 CONDUIT     20.44     0  03:01      0.44    0.02    0.07
  HS02004856HS02004862 CONDUIT     30.56     0  03:01      0.47    0.03    0.09
  HS02004852HS02004856 CONDUIT     20.26     0  03:01      0.24    0.02    0.12
  HS02004802HS02004478 CONDUIT    106.59     0  03:02      0.45    0.09    0.35
  HS02004478WS02006287 CONDUIT    375.26     0  03:01      1.68    0.11    0.25
  HS02004817HS02004807 CONDUIT     82.18     0  03:01      0.19    0.05    0.62
  HS02004807HS02004802 CONDUIT    106.49     0  03:01      0.38    0.20    0.40
  YS02001759YS02001757 CONDUIT    710.36     0  02:59      0.90    0.50    1.00
  YS02001762YS02001759 CONDUIT    360.55     0  02:58      0.46    0.42    1.00
  YS02001765YS02001762 CONDUIT    360.50     0  02:58      0.46    0.34    1.00
  YS02001770YS02001767 CONDUIT    360.10     0  02:58      0.46    1.43    1.00
  YS02001774YS02001770 CONDUIT    186.36     0  04:07      0.24    0.12    1.00
  YS02001779YS02001774 CONDUIT    186.52     0  04:07      0.24    0.09    1.00
  YS02001649YS02001757 CONDUIT    977.46     0  02:52      1.24    0.59    1.00
  YS02001767YS02001765 CONDUIT    360.49     0  02:58      0.46    0.45    1.00
  YS02006561YS02001783 CONDUIT    964.11     0  03:00      2.12    0.50    1.00
  YS02001783YS02001784 CONDUIT    964.09     0  03:00      1.92    1.33    1.00
  YS02001784YS02001785 CONDUIT    965.15     0  03:00      1.92    2.25    1.00
  YS02001788YS02001790 CONDUIT    965.36     0  03:01      2.32    0.71    1.00
  YS02001790YS02001791 CONDUIT    965.53     0  03:01      2.87    1.05    1.00
  YS02001791YS02001793 CONDUIT    965.54     0  03:01      5.73    0.41    1.00
  YS02001910YS02001907 CONDUIT    460.09     0  02:55      0.59    0.26    1.00
  YS02001786YS02001788 CONDUIT    965.18     0  03:01      2.23    1.86    1.00
  YS02001915YS02001910 CONDUIT    460.07     0  02:55      0.59    0.23    1.00
  YS02001918YS02001915 CONDUIT    223.34     0  02:55      0.44    0.12    1.00
  YS02001923YS02001920 CONDUIT    219.78     0  02:55      0.68    0.10    1.00
  YS02001926YS02001923 CONDUIT    232.18     0  02:55      0.79    0.33    0.90
  YS02001929YS02001926 CONDUIT    196.18     0  02:54      0.84    0.09    0.80
  YS02001920YS02001918 CONDUIT    222.74     0  02:55      0.67    0.22    1.00
  YS02001629YS02163301 CONDUIT    217.50     0  02:51      0.28    0.27    1.00
  YS02001619YS02001622 CONDUIT    257.47     0  03:01      0.61    0.38    1.00
  YS02001622YS02001625 CONDUIT    257.35     0  03:01      0.33    0.14    1.00
  YS02001625YS02001629 CONDUIT    217.22     0  02:52      0.28    0.10    1.00
  YS02163301YS02001633 CONDUIT    217.52     0  02:51      0.28    0.20    1.00
  YS02163601YS02164001 CONDUIT    458.80     0  02:51      0.58    0.41    1.00
  YS02164001YS02001641 CONDUIT    458.94     0  02:51      0.58    0.63    1.00
  YS02001641YS02001644 CONDUIT    458.74     0  02:51      0.58    1.48    1.00
  YS02001647YS02001649 CONDUIT    695.94     0  02:51      0.89    0.37    1.00
  YS02006553YS02006556 CONDUIT    666.99     0  03:17      0.85    0.57    1.00
  YS02006556YS02006558 CONDUIT    667.06     0  03:17      0.85    0.53    1.00
  YSB6556YSB1171       CONDUIT     24.81     0  03:03      0.09    0.03    0.67
  YS02001907YS02006553 CONDUIT    667.07     0  03:17      0.74    0.78    1.00
  YS02006558YS02006561 CONDUIT    964.07     0  03:00      3.41    2.13    1.00
  YS02001633YS02163601 CONDUIT    458.55     0  02:51      0.58    0.48    1.00
  YS02001644YS02001647 CONDUIT    695.96     0  02:51      0.89    0.41    1.00
  YS02001745YS02001748 CONDUIT    594.07     0  02:45      1.48    0.23    0.93
  YS02001748YS02001751 CONDUIT    328.22     0  02:38      1.05    0.17    1.00
  YS02001751YS02001754 CONDUIT    308.21     0  03:01      0.88    0.15    1.00
  YS02001754YS02001757 CONDUIT    308.63     0  03:01      0.39    0.12    1.00
  YS02001882YS02001884 CONDUIT     28.39     0  02:46      0.09    0.03    1.00
  YS02001884YS02001887 CONDUIT     49.88     0  02:44      0.07    0.07    1.00
  YS02001890YS02001895 CONDUIT    453.43     0  03:01      0.58    0.21    1.00
  YS02001895YS02001898 CONDUIT    453.52     0  03:01      0.58    0.79    1.00
  YS02001898YS02001901 CONDUIT    453.88     0  03:01      0.58    0.29    1.00
  YS02001901YS02001904 CONDUIT    453.70     0  03:01      0.58    0.70    1.00
  YS02001904YS02001907 CONDUIT    453.78     0  03:01      0.58    0.16    1.00
  YS02001887YS02001890 CONDUIT    453.58     0  03:01      0.58    0.78    1.00
  YS02001652YS02001649 CONDUIT    377.68     0  03:01      0.50    0.19    1.00
  YS02001655YS02001652 CONDUIT    377.56     0  03:01      0.93    0.18    1.00
  YS02001658YS02001655 CONDUIT    377.26     0  03:01      1.21    0.16    1.00
  YS02001661YS02001658 CONDUIT    533.68     0  02:43      1.56    0.21    1.00
  YS02001664YS02001661 CONDUIT    705.42     0  02:57      1.63    0.22    0.71
  YSB1154YSB6556       CONDUIT     24.91     0  03:01      0.19    0.04    0.56
  YSB1174YSB1171       CONDUIT     18.78     0  03:01      0.07    0.03    0.68
  YSB1171HS02004479    CONDUIT     42.82     0  03:02      0.54    0.03    0.53
  HS02004881HS02006253 CONDUIT     79.15     0  03:01      1.60    0.02    0.32
  YS02001793JiankangQianchi CONDUIT    965.55     0  03:00     15.21    0.08    1.00
  YS02001757CaochengTiaoxuchi CONDUIT   1855.22     0  02:53      2.56    0.81    1.00
  WSF200WS02003060     CONDUIT    680.23     0  03:05      1.78    0.15    0.37
  1                    CONDUIT   1036.57     0  03:12      3.36    0.36    0.42
  2                    CONDUIT    246.99     0  03:01      6.15    0.59    0.55
  3                    CONDUIT    597.65     0  00:00     10.05    0.95    0.86
  4                    CONDUIT      0.00     0  00:00      0.00    0.00    0.00
  CC-Pump-1            PUMP       200.00     0  02:00              1.00
  CC-Pump-2            PUMP       200.00     0  01:59              1.00
  JK-Pump-1            PUMP       300.00     0  00:00              1.00
  JK-Pump-2            PUMP       300.00     0  00:00              1.00
  XR-Pump-1            PUMP        95.00     0  00:00              1.00
  XR-Pump-2            PUMP        95.00     0  00:00              1.00
  XR-Pump-3            PUMP        95.00     0  00:00              1.00
  XR-Pump-4            PUMP        95.00     0  00:00              1.00
  
  
  ***************************
  Flow Classification Summary
  ***************************
  
  -------------------------------------------------------------------------------------
                      Adjusted    ---------- Fraction of Time in Flow Class ---------- 
                       /Actual         Up    Down  Sub   Sup   Up    Down  Norm  Inlet 
  Conduit               Length    Dry  Dry   Dry   Crit  Crit  Crit  Crit  Ltd   Ctrl  
  -------------------------------------------------------------------------------------
  WS02003066WSF200        1.00   0.02  0.04  0.00  0.00  0.94  0.00  0.00  0.56  0.00
  WS02006287WS02006284    1.00   0.03  0.01  0.00  0.58  0.38  0.00  0.00  0.65  0.00
  WS02006284WS02006280    1.00   0.03  0.00  0.00  0.00  0.00  0.00  0.97  0.00  0.00
  WS02006280WS02006229    1.00   0.03  0.00  0.00  0.00  0.00  0.00  0.97  0.00  0.00
  WS02006229WS02006228    1.00   0.00  0.00  0.00  0.99  0.00  0.00  0.01  0.00  0.00
  WS02006256WS02006235    1.00   0.00  0.00  0.00  1.00  0.00  0.00  0.00  0.00  0.00
  WS02006253WS02006251    1.00   0.02  0.01  0.00  0.97  0.00  0.00  0.00  0.00  0.00
  WS02006252WS02006251    1.00   0.06  0.00  0.00  0.00  0.00  0.94  0.00  0.00  0.00
  WS02006251WS02006249    1.00   0.00  0.00  0.00  1.00  0.00  0.00  0.00  0.22  0.00
  WS02006249WS02006248    1.00   0.00  0.01  0.00  0.93  0.00  0.05  0.00  0.00  0.00
  WS02006248WS02006247    1.00   0.02  0.00  0.00  0.98  0.00  0.00  0.01  0.11  0.00
  WS02006247WS02006245    1.00   0.02  0.00  0.00  0.97  0.00  0.00  0.01  0.00  0.00
  WS02006245WS02006243    1.00   0.01  0.00  0.00  0.95  0.00  0.00  0.03  0.01  0.00
  WS02006243WS02006242    1.00   0.01  0.00  0.00  0.99  0.00  0.00  0.00  0.21  0.00
  WS02006242WS02006240    1.00   0.00  0.00  0.00  1.00  0.00  0.00  0.00  0.00  0.00
  WS02006240WS02006239    1.00   0.00  0.00  0.00  0.97  0.00  0.00  0.03  0.02  0.00
  WS02006239WS02006238    1.00   0.00  0.00  0.00  1.00  0.00  0.00  0.00  0.00  0.00
  WS02006238WS02006235    1.00   0.00  0.00  0.00  1.00  0.00  0.00  0.00  0.00  0.00
  WS02006235WS02006234    1.00   0.00  0.00  0.00  0.96  0.00  0.04  0.00  0.00  0.00
  WS02006234WS02006232    1.00   0.00  0.00  0.00  1.00  0.00  0.00  0.00  0.06  0.00
  WS02006232WS02006231    1.00   0.00  0.00  0.00  0.99  0.00  0.01  0.00  0.00  0.00
  WS02006231WS02006230    1.00   0.00  0.00  0.00  0.86  0.00  0.13  0.00  0.00  0.00
  WS02006230WS02006229    1.00   0.00  0.00  0.00  0.99  0.00  0.00  0.01  0.01  0.00
  WS02006228WS02006109    1.00   0.00  0.00  0.00  1.00  0.00  0.00  0.00  0.00  0.00
  WS02006116WS02004401    1.00   0.02  0.00  0.00  0.98  0.00  0.00  0.00  0.00  0.00
  WS02006115WS02006116    1.00   0.02  0.00  0.00  0.97  0.00  0.00  0.01  0.01  0.00
  WS02006113WS02006111    1.00   0.02  0.00  0.00  0.00  0.98  0.00  0.00  0.08  0.00
  WS02006112WS02006115    1.00   0.02  0.00  0.00  0.98  0.00  0.00  0.00  0.00  0.00
  WS02006111WS02006112    1.00   0.02  0.00  0.00  0.98  0.00  0.00  0.00  0.90  0.00
  WS02006110WS02006113    1.00   0.01  0.00  0.00  0.98  0.00  0.00  0.00  0.00  0.00
  WS02006109WS02006110    1.00   0.00  0.01  0.00  0.98  0.00  0.00  0.00  0.00  0.00
  WS02004411WS02004412    1.00   0.04  0.00  0.00  0.96  0.00  0.00  0.00  0.00  0.00
  WS02004401WS02004402    1.00   0.02  0.00  0.00  0.98  0.00  0.00  0.00  0.00  0.00
  WS02004413WS02003067    1.00   0.04  0.01  0.00  0.00  0.00  0.95  0.00  0.00  0.00
  WS02004412WS02004413    1.00   0.04  0.00  0.00  0.96  0.00  0.00  0.00  0.01  0.00
  WS02004410WS02004411    1.00   0.04  0.00  0.00  0.96  0.00  0.00  0.00  0.00  0.00
  WS02004409WS02004410    1.00   0.04  0.00  0.00  0.96  0.00  0.00  0.00  0.00  0.00
  WS02004407WS02004409    1.00   0.04  0.00  0.00  0.96  0.00  0.00  0.00  0.80  0.00
  WS02004406WS02004407    1.00   0.00  0.04  0.00  0.96  0.00  0.00  0.00  0.00  0.00
  WS02004405WS02004406    1.00   0.00  0.00  0.00  1.00  0.00  0.00  0.00  0.02  0.00
  WS02004404WS02004405    1.00   0.00  0.00  0.00  1.00  0.00  0.00  0.00  0.00  0.00
  WS02004403WS02004404    1.00   0.00  0.02  0.00  0.98  0.00  0.00  0.00  0.02  0.00
  WS02004402WS02004403    1.00   0.02  0.00  0.00  0.98  0.00  0.00  0.00  0.00  0.00
  WS02004139WS02001211    1.00   0.00  0.00  0.00  1.00  0.00  0.00  0.00  0.00  0.00
  WS02004138WS02004139    1.00   0.00  0.00  0.00  0.99  0.01  0.00  0.00  1.00  0.00
  WS02003067WS02003066    1.00   0.05  0.00  0.00  0.94  0.00  0.00  0.00  0.00  0.00
  WS02001213WS02003059    1.00   0.00  0.00  0.00  0.99  0.00  0.00  0.00  0.00  0.00
  WS02001212WS02001213    1.00   0.00  0.00  0.00  0.92  0.00  0.07  0.00  0.00  0.00
  WS02001211WS02001212    1.00   0.00  0.00  0.00  1.00  0.00  0.00  0.00  0.00  0.00
  WS02003072WS02003073    1.00   0.00  0.00  0.00  0.00  0.00  0.00  1.00  0.00  0.00
  WS02003069WS02003072    1.00   0.00  0.00  0.00  0.99  0.01  0.00  0.00  0.17  0.00
  WS02003060WS02003069    1.00   0.00  0.00  0.00  0.99  0.01  0.00  0.00  0.10  0.00
  WS02003059WS02003060    1.00   0.00  0.00  0.00  0.99  0.01  0.00  0.00  0.00  0.00
  HS02004901HS02004770    1.00   0.03  0.00  0.00  0.97  0.00  0.00  0.00  0.00  0.00
  HS02004876HS02004881    1.00   0.02  0.00  0.00  0.90  0.09  0.00  0.00  0.00  0.00
  HS02004870HS02004876    1.00   0.01  0.00  0.00  0.99  0.00  0.00  0.00  0.95  0.00
  HS02004842HS02004848    1.00   0.00  0.03  0.00  0.97  0.00  0.00  0.00  0.58  0.00
  HS02004837HS02004842    1.00   0.00  0.00  0.00  0.99  0.01  0.00  0.00  0.11  0.00
  HS02004830HS02004837    1.00   0.00  0.00  0.00  1.00  0.00  0.00  0.00  0.99  0.00
  HS02004824HS02004830    1.00   0.00  0.00  0.00  1.00  0.00  0.00  0.00  0.00  0.00
  HS02004817HS02004824    1.00   0.00  0.00  0.00  1.00  0.00  0.00  0.00  1.00  0.00
  HS02004770HS02004777    1.00   0.00  0.03  0.00  0.97  0.00  0.00  0.00  0.03  0.00
  HS02004799HS02004480    1.00   0.00  0.01  0.00  0.96  0.00  0.02  0.00  0.00  0.00
  HS02004792HS02004799    1.00   0.00  0.00  0.00  0.99  0.01  0.00  0.00  0.98  0.00
  HS02004788HS02004792    1.00   0.00  0.00  0.00  0.99  0.01  0.00  0.00  0.98  0.00
  HS02004785HS02004788    1.00   0.00  0.00  0.00  1.00  0.00  0.00  0.00  0.00  0.00
  HS02004777HS02004785    1.00   0.00  0.00  0.00  1.00  0.00  0.00  0.00  0.14  0.00
  HS02004480HS02004478    1.00   0.03  0.00  0.00  0.66  0.00  0.00  0.31  0.00  0.00
  HS02004479HS02004480    1.00   0.02  0.00  0.00  0.98  0.00  0.00  0.00  0.13  0.00
  HS02004862HS02004870    1.00   0.00  0.00  0.00  1.00  0.00  0.00  0.00  0.05  0.00
  HS02004848HS02004852    1.00   0.03  0.00  0.00  0.97  0.00  0.00  0.00  0.61  0.00
  HS02004856HS02004862    1.00   0.00  0.04  0.00  0.96  0.00  0.00  0.00  0.80  0.00
  HS02004852HS02004856    1.00   0.03  0.00  0.00  0.97  0.00  0.00  0.00  0.85  0.00
  HS02004802HS02004478    1.00   0.03  0.00  0.00  0.97  0.00  0.00  0.00  0.03  0.00
  HS02004478WS02006287    1.00   0.04  0.00  0.00  0.72  0.24  0.00  0.00  0.66  0.00
  HS02004817HS02004807    1.00   0.00  0.03  0.00  0.97  0.00  0.00  0.00  0.01  0.00
  HS02004807HS02004802    1.00   0.03  0.00  0.00  0.96  0.00  0.00  0.00  0.00  0.00
  YS02001759YS02001757    1.00   0.00  0.00  0.00  1.00  0.00  0.00  0.00  0.16  0.00
  YS02001762YS02001759    1.00   0.00  0.00  0.00  1.00  0.00  0.00  0.00  0.04  0.00
  YS02001765YS02001762    1.00   0.00  0.00  0.00  1.00  0.00  0.00  0.00  0.16  0.00
  YS02001770YS02001767    1.00   0.00  0.00  0.00  1.00  0.00  0.00  0.00  0.00  0.00
  YS02001774YS02001770    1.00   0.00  0.03  0.00  0.97  0.00  0.00  0.00  0.04  0.00
  YS02001779YS02001774    1.00   0.00  0.00  0.00  1.00  0.00  0.00  0.00  0.21  0.00
  YS02001649YS02001757    1.00   0.00  0.00  0.00  1.00  0.00  0.00  0.00  0.17  0.00
  YS02001767YS02001765    1.00   0.00  0.00  0.00  1.00  0.00  0.00  0.00  0.00  0.00
  YS02006561YS02001783    1.00   0.04  0.00  0.00  0.30  0.65  0.00  0.00  0.53  0.00
  YS02001783YS02001784    1.00   0.00  0.05  0.00  0.95  0.00  0.00  0.00  0.01  0.00
  YS02001784YS02001785    1.00   0.00  0.00  0.00  1.00  0.00  0.00  0.00  0.20  0.00
  YS02001788YS02001790    1.00   0.00  0.00  0.00  0.34  0.66  0.00  0.00  0.48  0.00
  YS02001790YS02001791    1.00   0.00  0.00  0.00  0.31  0.69  0.00  0.00  0.52  0.00
  YS02001791YS02001793    1.00   0.00  0.00  0.00  0.31  0.69  0.00  0.00  0.01  0.00
  YS02001910YS02001907    1.00   0.00  0.00  0.00  0.98  0.00  0.00  0.02  0.13  0.00
  YS02001786YS02001788    1.00   0.00  0.00  0.00  0.33  0.67  0.00  0.00  0.00  0.00
  YS02001915YS02001910    1.00   0.00  0.00  0.00  0.99  0.01  0.00  0.00  0.18  0.00
  YS02001918YS02001915    1.00   0.00  0.01  0.00  0.99  0.00  0.00  0.00  0.58  0.00
  YS02001923YS02001920    1.00   0.00  0.00  0.00  1.00  0.00  0.00  0.00  0.86  0.00
  YS02001926YS02001923    1.00   0.00  0.02  0.00  0.14  0.00  0.83  0.00  0.00  0.00
  YS02001929YS02001926    1.00   0.00  0.03  0.00  0.97  0.00  0.00  0.00  0.78  0.00
  YS02001920YS02001918    1.00   0.00  0.01  0.00  0.99  0.00  0.00  0.00  0.00  0.00
  YS02001629YS02163301    1.00   0.04  0.00  0.00  0.96  0.00  0.00  0.00  0.00  0.00
  YS02001619YS02001622    1.00   0.03  0.00  0.00  0.97  0.00  0.00  0.00  0.00  0.00
  YS02001622YS02001625    1.00   0.03  0.00  0.00  0.97  0.00  0.00  0.00  0.07  0.00
  YS02001625YS02001629    1.00   0.03  0.01  0.00  0.94  0.00  0.01  0.00  0.00  0.00
  YS02163301YS02001633    1.00   0.00  0.04  0.00  0.96  0.00  0.00  0.00  0.00  0.00
  YS02163601YS02164001    1.00   0.00  0.03  0.00  0.97  0.00  0.00  0.00  0.00  0.00
  YS02164001YS02001641    1.00   0.01  0.01  0.00  0.97  0.00  0.00  0.00  0.06  0.00
  YS02001641YS02001644    1.00   0.00  0.01  0.00  0.99  0.00  0.00  0.00  0.00  0.00
  YS02001647YS02001649    1.00   0.00  0.04  0.00  0.96  0.00  0.00  0.00  0.01  0.00
  YS02006553YS02006556    1.00   0.01  0.00  0.00  0.99  0.00  0.00  0.00  0.03  0.00
  YS02006556YS02006558    1.00   0.00  0.00  0.00  1.00  0.00  0.00  0.00  0.00  0.00
  YSB6556YSB1171          1.00   0.02  0.01  0.00  0.97  0.00  0.00  0.00  0.00  0.00
  YS02001907YS02006553    1.00   0.00  0.01  0.00  0.98  0.00  0.00  0.00  0.00  0.00
  YS02006558YS02006561    1.00   0.04  0.00  0.00  0.18  0.77  0.00  0.00  0.47  0.00
  YS02001633YS02163601    1.00   0.00  0.01  0.00  0.99  0.00  0.00  0.00  0.16  0.00
  YS02001644YS02001647    1.00   0.00  0.04  0.00  0.96  0.00  0.00  0.00  0.00  0.00
  YS02001745YS02001748    1.00   0.00  0.00  0.00  0.90  0.01  0.00  0.09  0.06  0.00
  YS02001748YS02001751    1.00   0.00  0.00  0.00  0.98  0.02  0.00  0.00  0.15  0.00
  YS02001751YS02001754    1.00   0.00  0.00  0.00  0.95  0.00  0.00  0.05  0.02  0.00
  YS02001754YS02001757    1.00   0.00  0.00  0.00  0.99  0.01  0.00  0.00  0.20  0.00
  YS02001882YS02001884    1.00   0.04  0.00  0.00  0.96  0.00  0.00  0.00  0.00  0.00
  YS02001884YS02001887    1.00   0.02  0.01  0.00  0.97  0.00  0.00  0.00  0.00  0.00
  YS02001890YS02001895    1.00   0.00  0.04  0.00  0.96  0.00  0.00  0.00  0.00  0.00
  YS02001895YS02001898    1.00   0.04  0.00  0.00  0.95  0.00  0.01  0.00  0.00  0.00
  YS02001898YS02001901    1.00   0.04  0.00  0.00  0.96  0.00  0.00  0.00  0.02  0.00
  YS02001901YS02001904    1.00   0.04  0.00  0.00  0.96  0.00  0.00  0.00  0.00  0.00
  YS02001904YS02001907    1.00   0.00  0.04  0.00  0.96  0.00  0.00  0.00  0.00  0.00
  YS02001887YS02001890    1.00   0.00  0.00  0.00  0.98  0.00  0.01  0.00  0.00  0.00
  YS02001652YS02001649    1.00   0.00  0.00  0.00  1.00  0.00  0.00  0.00  0.18  0.00
  YS02001655YS02001652    1.00   0.00  0.00  0.00  0.95  0.00  0.00  0.05  0.02  0.00
  YS02001658YS02001655    1.00   0.00  0.04  0.00  0.94  0.02  0.00  0.00  0.11  0.00
  YS02001661YS02001658    1.00   0.04  0.00  0.00  0.90  0.06  0.00  0.00  0.07  0.00
  YS02001664YS02001661    1.00   0.03  0.00  0.00  0.86  0.11  0.00  0.00  0.23  0.00
  YSB1154YSB6556          1.00   0.03  0.00  0.00  0.97  0.00  0.00  0.00  0.02  0.00
  YSB1174YSB1171          1.00   0.02  0.01  0.00  0.97  0.00  0.00  0.00  0.00  0.00
  YSB1171HS02004479       1.00   0.02  0.00  0.00  0.98  0.00  0.00  0.00  0.11  0.00
  HS02004881HS02006253    1.00   0.02  0.00  0.00  0.90  0.00  0.00  0.08  0.73  0.00
  YS02001793JiankangQianchi    1.00   0.00  0.00  0.00  0.47  0.52  0.00  0.00  0.15  0.00
  YS02001757CaochengTiaoxuchi    1.00   0.00  0.06  0.00  0.91  0.03  0.00  0.00  0.00  0.00
  WSF200WS02003060        1.00   0.00  0.02  0.00  0.93  0.05  0.00  0.00  0.25  0.00
  1                       1.00   0.00  0.00  0.00  0.00  1.00  0.00  0.00  0.34  0.00
  2                       1.00   0.33  0.00  0.00  0.00  0.67  0.00  0.00  0.10  0.00
  3                       1.00   0.05  0.00  0.00  0.00  0.95  0.00  0.00  0.01  0.00
  4                       1.00   1.00  0.00  0.00  0.00  0.00  0.00  0.00  0.00  0.00
  
  
  *************************
  Conduit Surcharge Summary
  *************************
  
  ----------------------------------------------------------------------------
                                                           Hours        Hours 
                         --------- Hours Full --------   Above Full   Capacity
  Conduit                Both Ends  Upstream  Dnstream   Normal Flow   Limited
  ----------------------------------------------------------------------------
  WS02006229WS02006228        3.59      3.87      3.59      5.73         3.59
  WS02006256WS02006235        6.05      6.05      7.68      2.01         0.01
  WS02006253WS02006251        0.22      0.22      0.68      0.01         0.01
  WS02006252WS02006251        3.16      3.16      4.33      4.03         0.01
  WS02006251WS02006249        0.01      0.37      0.01      3.23         0.01
  WS02006249WS02006248        0.01      0.01      0.01      5.59         0.01
  WS02006248WS02006247        0.01      0.01      0.47      0.01         0.01
  WS02006247WS02006245        0.39      0.66      0.39      5.68         0.39
  WS02006245WS02006243        0.63      0.63      0.95      0.05         0.01
  WS02006243WS02006242        1.13      1.13      3.28      0.01         0.01
  WS02006242WS02006240        1.65      1.65      3.68      3.85         0.01
  WS02006240WS02006239        1.82      1.82      1.98      0.03         0.01
  WS02006239WS02006238        3.54      3.55      3.66      0.07         0.05
  WS02006238WS02006235        3.52      3.52      3.97      0.01         0.01
  WS02006235WS02006234        1.61      1.61      3.32      6.09         0.01
  WS02006234WS02006232        1.86      1.86      4.03      0.01         0.01
  WS02006232WS02006231        1.16      1.16      4.03      0.01         0.01
  WS02006231WS02006230        0.74      0.74      1.19      6.05         0.01
  WS02006230WS02006229        4.96      5.62      4.96      6.12         4.96
  WS02006228WS02006109        3.72      4.33      3.72      5.98         3.72
  WS02006112WS02006115        0.01      0.01      1.39      0.01         0.01
  WS02006111WS02006112        0.01      0.01      5.71      0.01         0.01
  WS02006110WS02006113        0.01      0.01      4.06      0.01         0.01
  WS02006109WS02006110        1.26      1.26      4.32      1.27         0.01
  WS02004401WS02004402        0.01      0.01      0.11      0.01         0.01
  WS02004406WS02004407        0.01      0.01      0.52      0.01         0.01
  WS02004405WS02004406        0.52      0.67      0.52      1.32         0.52
  WS02004404WS02004405        0.67      0.79      0.67      6.00         0.67
  WS02004403WS02004404        0.13      0.13      0.79      0.01         0.01
  WS02004402WS02004403        0.11      0.11      0.13      0.01         0.01
  WS02003072WS02003073        0.01      0.01      0.01      5.79         0.01
  HS02004480HS02004478        0.01      0.01      0.01      0.25         0.01
  YS02001759YS02001757        5.66      5.66      5.74      0.01         0.01
  YS02001762YS02001759        5.63      5.63      5.66      0.01         0.01
  YS02001765YS02001762        5.60      5.60      5.63      0.01         0.01
  YS02001770YS02001767        5.48      5.50      5.51      0.42         0.97
  YS02001774YS02001770        5.43      5.43      5.63      0.01         0.01
  YS02001779YS02001774        5.33      5.33      5.63      0.01         0.01
  YS02001649YS02001757        5.64      5.64      5.74      0.01         0.01
  YS02001767YS02001765        5.51      5.51      5.60      0.01         0.01
  YS02006561YS02001783        0.65      0.65      1.19      0.01         0.01
  YS02001783YS02001784        1.19      1.19      1.26      1.14         0.98
  YS02001784YS02001785        1.20      1.26      1.20      2.10         1.20
  YS02001788YS02001790        1.18      1.18      1.65      0.01         0.01
  YS02001790YS02001791        1.65      1.65      1.68      0.48         0.48
  YS02001791YS02001793        1.68      1.68      1.80      0.01         0.01
  YS02001910YS02001907        0.97      0.97      1.50      0.01         0.01
  YS02001786YS02001788        1.18      1.20      1.18      1.67         1.18
  YS02001915YS02001910        0.77      0.77      0.97      0.01         0.01
  YS02001918YS02001915        0.52      0.52      0.77      0.01         0.01
  YS02001923YS02001920        0.29      0.29      0.55      0.01         0.01
  YS02001920YS02001918        0.52      0.52      0.55      0.01         0.01
  YS02001629YS02163301        5.42      5.42      5.51      0.01         0.01
  YS02001619YS02001622        5.19      5.19      5.22      0.01         0.01
  YS02001622YS02001625        5.22      5.22      5.40      0.01         0.01
  YS02001625YS02001629        5.18      5.18      5.40      0.01         0.01
  YS02163301YS02001633        5.51      5.51      5.61      0.01         0.01
  YS02163601YS02164001        5.60      5.60      5.64      0.01         0.01
  YS02164001YS02001641        5.60      5.60      5.61      0.01         0.02
  YS02001641YS02001644        5.61      5.61      5.62      1.21         1.48
  YS02001647YS02001649        5.40      5.40      5.64      0.01         0.01
  YS02006553YS02006556        1.20      1.20      1.56      0.01         0.01
  YS02006556YS02006558        1.37      1.37      1.63      0.01         0.01
  YS02001907YS02006553        2.09      2.09      2.30      0.01         0.01
  YS02006558YS02006561        0.87      1.16      0.87      1.94         0.87
  YS02001633YS02163601        5.60      5.60      5.64      0.01         0.01
  YS02001644YS02001647        5.40      5.40      5.62      0.01         0.01
  YS02001745YS02001748        0.01      0.01      4.91      0.01         0.01
  YS02001748YS02001751        5.05      5.05      5.15      0.01         0.01
  YS02001751YS02001754        5.15      5.15      5.35      0.01         0.01
  YS02001754YS02001757        5.40      5.40      5.74      0.01         0.01
  YS02001882YS02001884        0.78      0.78      0.81      0.01         0.01
  YS02001884YS02001887        0.87      0.87      0.89      0.01         0.01
  YS02001890YS02001895        0.75      0.75      0.99      0.01         0.01
  YS02001895YS02001898        0.74      0.74      0.75      0.01         0.01
  YS02001898YS02001901        0.76      0.76      0.86      0.01         0.01
  YS02001901YS02001904        0.84      0.84      0.86      0.01         0.01
  YS02001904YS02001907        0.84      0.84      1.59      0.01         0.01
  YS02001887YS02001890        0.93      0.93      0.96      0.01         0.01
  YS02001652YS02001649        5.41      5.41      5.64      0.01         0.01
  YS02001655YS02001652        5.18      5.18      5.40      0.01         0.01
  YS02001658YS02001655        4.96      4.96      5.18      0.01         0.01
  YS02001661YS02001658        0.20      0.20      4.96      0.01         0.01
  YS02001664YS02001661        0.01      0.01      1.00      0.01         0.01
  YS02001793JiankangQianchi        1.77      1.77      2.56      0.01         0.01
  YS02001757CaochengTiaoxuchi        4.80      4.80      5.74      0.01         0.01
  3                           0.01      0.01      0.01      0.01         0.01
  
  
  ***************
  Pumping Summary
  ***************
  
  ---------------------------------------------------------------------------------------------------------
                                                  Min       Avg       Max     Total     Power    % Time Off
                        Percent   Number of      Flow      Flow      Flow    Volume     Usage    Pump Curve
  Pump                 Utilized   Start-Ups       LPS       LPS       LPS  10^6 ltr     Kw-hr    Low   High
  ---------------------------------------------------------------------------------------------------------
  CC-Pump-1               67.30           4      0.00    164.89    200.00     3.160      6.00    0.0   12.9
  CC-Pump-2               75.81           2      0.00    169.16    200.00     3.641      6.76    0.0   11.5
  JK-Pump-1               95.74           3      0.00    184.01    300.00     3.913     50.76    0.0    0.0
  JK-Pump-2               95.74           3      0.00    197.51    300.00     4.126     49.04    0.0    0.0
  XR-Pump-1               87.22           8      0.00     75.78     95.00     1.824     20.17    0.0    0.0
  XR-Pump-2               99.99           6      0.00     80.15     95.00     2.223     24.59    0.0    0.0
  XR-Pump-3               89.35           7      0.00     75.17     95.00     1.910     23.21    0.0    0.0
  XR-Pump-4               99.99           5      0.00     77.41     95.00     2.223     26.46    0.0    0.0
  

  Analysis begun on:  Fri Jan  7 10:46:48 2022
  Analysis ended on:  Fri Jan  7 10:46:52 2022
  Total elapsed time: 00:00:04