
  EPA STORM WATER MANAGEMENT MODEL - VERSION 5.1 (Build 5.3.0.dev0)
  --------------------------------------------------------------

  WARNING 04: minimum elevation drop used for Conduit WS02004404WS02004405
  WARNING 03: negative offset ignored for Link YS02001904YS02001907
  
  *********************************************************
  NOTE: The summary statistics displayed in this report are
  based on results found at every computational time step,  
  not just on results from each reporting time step.
  *********************************************************
  
  ****************
  Analysis Options
  ****************
  Flow Units ............... LPS
  Process Models:
    Rainfall/Runoff ........ YES
    RDII ................... NO
    Snowmelt ............... NO
    Groundwater ............ NO
    Flow Routing ........... YES
    Ponding Allowed ........ NO
    Water Quality .......... NO
  Infiltration Method ...... HORTON
  Flow Routing Method ...... DYNWAVE
  Surcharge Method ......... EXTRAN
  Starting Date ............ 08/28/2015 08:00:00
  Ending Date .............. 08/28/2015 15:50:00
  Antecedent Dry Days ...... 8.0
  Report Time Step ......... 00:01:00
  Wet Time Step ............ 00:01:00
  Dry Time Step ............ 00:01:00
  Routing Time Step ........ 5.00 sec
  Variable Time Step ....... YES
  Maximum Trials ........... 8
  Number of Threads ........ 4
  Head Tolerance ........... 0.001500 m
  
  
  **************************        Volume         Depth
  Runoff Quantity Continuity     hectare-m            mm
  **************************     ---------       -------
  Total Precipitation ......         5.556        12.164
  Evaporation Loss .........         0.000         0.000
  Infiltration Loss ........         1.427         3.124
  Surface Runoff ...........         3.072         6.726
  Final Storage ............         1.058         2.316
  Continuity Error (%) .....        -0.016
  
  
  **************************        Volume        Volume
  Flow Routing Continuity        hectare-m      10^6 ltr
  **************************     ---------     ---------
  Dry Weather Inflow .......         0.616         6.165
  Wet Weather Inflow .......         3.071        30.709
  Groundwater Inflow .......         0.000         0.000
  RDII Inflow ..............         0.000         0.000
  External Inflow ..........         0.102         1.024
  External Outflow .........         2.437        24.369
  Flooding Loss ............         0.964         9.641
  Evaporation Loss .........         0.000         0.000
  Exfiltration Loss ........         0.000         0.000
  Initial Stored Volume ....         0.076         0.761
  Final Stored Volume ......         0.591         5.906
  Continuity Error (%) .....        -3.254
  
  
  *************************
  Highest Continuity Errors
  *************************
  Node HS02004842 (16.24%)
  Node JK-storage (-13.56%)
  Node YS02001884 (11.74%)
  Node YS02001774 (3.29%)
  Node YSB1171 (3.12%)
  
  
  ***************************
  Time-Step Critical Elements
  ***************************
  Link 3 (59.52%)
  Link WS02006252WS02006251 (30.13%)
  Link WS02006238WS02006235 (3.87%)
  Link WS02006280WS02006229 (1.20%)
  
  
  ********************************
  Highest Flow Instability Indexes
  ********************************
  Link YS02001619YS02001622 (40)
  Link YS02163601YS02164001 (38)
  Link YS02163301YS02001633 (38)
  Link YS02001629YS02163301 (38)
  Link YS02164001YS02001641 (35)
  
  
  *************************
  Routing Time Step Summary
  *************************
  Minimum Time Step           :     0.50 sec
  Average Time Step           :     0.76 sec
  Maximum Time Step           :     5.00 sec
  Percent in Steady State     :    -0.00
  Average Iterations per Step :     4.76
  Percent Not Converging      :    25.04
  
  
  ***************************
  Subcatchment Runoff Summary
  ***************************
  
  ------------------------------------------------------------------------------------------------------------------------------
                            Total      Total      Total      Total     Imperv       Perv      Total       Total     Peak  Runoff
                           Precip      Runon       Evap      Infil     Runoff     Runoff     Runoff      Runoff   Runoff   Coeff
  Subcatchment                 mm         mm         mm         mm         mm         mm         mm    10^6 ltr      LPS
  ------------------------------------------------------------------------------------------------------------------------------
  sub0                      12.16       0.00       0.00       0.85      10.05       0.00      10.05        0.01     1.91   0.826
  sub1                      12.16       0.00       0.00       1.34       9.56       0.00       9.56        0.06    14.15   0.786
  sub2                      12.16       0.00       0.00       4.50       6.75       0.00       6.75        0.06    13.75   0.555
  sub3                      12.16       0.00       0.00       4.50       6.71       0.00       6.71        0.15    32.07   0.552
  sub4                      12.16       0.00       0.00       1.34       9.40       0.00       9.40        0.20    40.20   0.773
  sub5                      12.16       0.00       0.00       0.85       9.99       0.00       9.99        0.11    25.19   0.822
  sub7                      12.16       0.00       0.00       1.09       9.81       0.00       9.81        0.03     7.55   0.807
  sub8                      12.16       0.00       0.00       1.09       9.80       0.00       9.80        0.06    14.17   0.806
  sub9                      12.16       0.00       0.00       1.09       9.80       0.00       9.80        0.05    10.64   0.806
  sub10                     12.16       0.00       0.00       0.97       9.89       0.00       9.89        0.11    24.40   0.813
  sub11                     12.16       0.00       0.00       0.97       9.91       0.00       9.91        0.12    26.15   0.815
  sub12                     12.16       0.00       0.00       1.58       9.39       0.00       9.39        0.08    19.06   0.772
  sub14                     12.16       0.00       0.00       1.09       9.80       0.00       9.80        0.09    21.02   0.805
  sub15                     12.16       0.00       0.00       3.65       7.53       0.00       7.53        0.13    29.11   0.619
  sub16                     12.16       0.00       0.00       4.01       7.23       0.00       7.23        0.08    17.47   0.594
  sub17                     12.16       0.00       0.00       3.89       7.34       0.00       7.34        0.06    14.47   0.603
  sub22                     12.16       0.00       0.00       5.23       6.14       0.00       6.14        0.39    88.27   0.505
  sub23                     12.16       0.00       0.00       4.50       6.79       0.00       6.79        0.32    73.89   0.558
  sub60                     12.16       0.00       0.00       1.46       7.71       0.00       7.71        2.34   297.17   0.634
  sub61                     12.16       0.00       0.00       2.07       7.87       0.00       7.87        2.43   359.80   0.647
  sub62                     12.16       0.00       0.00       0.97       8.55       0.00       8.55        2.63   372.87   0.703
  sub63                     12.16       0.00       0.00       3.53       6.89       0.00       6.89        2.09   327.80   0.567
  sub64                     12.16       0.00       0.00       1.82       7.40       0.00       7.40        2.25   282.66   0.608
  sub65                     12.16       0.00       0.00       1.58       7.52       0.00       7.52        2.31   287.20   0.618
  sub66                     12.16       0.00       0.00       3.53       6.36       0.00       6.36        1.95   257.27   0.523
  sub67                     12.16       0.00       0.00       0.97       9.05       0.00       9.05        2.79   452.90   0.744
  sub68                     12.16       0.00       0.00       1.70       8.28       0.00       8.28        2.55   391.99   0.681
  sub69                     12.16       0.00       0.00       1.82       8.61       0.00       8.61        2.01   355.79   0.708
  sub70                     12.16       8.79       0.00       7.03      11.43       0.10      11.53        2.64   335.00   0.550
  sub71                     12.16       0.00       0.00       0.97       8.31       0.00       8.31        1.96   263.63   0.683
  sub72                     12.16       0.00       0.00       0.85       6.56       0.00       6.56        1.34   129.40   0.540
  sub73                     12.16      11.23       0.00       7.88      12.47       0.08      12.54        2.95   300.52   0.536
  sub74                     12.16       0.00       0.00       9.12       2.57       0.00       2.57        1.03   189.59   0.211
  
  
  ******************
  Node Depth Summary
  ******************
  
  ---------------------------------------------------------------------------------
                                 Average  Maximum  Maximum  Time of Max    Reported
                                   Depth    Depth      HGL   Occurrence   Max Depth
  Node                 Type       Meters   Meters   Meters  days hr:min      Meters
  ---------------------------------------------------------------------------------
  WS02001211           JUNCTION     0.71     0.78     5.62     0  02:21        0.78
  WS02001212           JUNCTION     0.43     0.50     5.56     0  02:21        0.50
  WS02001213           JUNCTION     0.67     0.75     5.51     0  02:21        0.75
  WS02003069           JUNCTION     0.49     0.58     5.16     0  02:38        0.58
  WS02003072           JUNCTION     0.56     0.64     5.01     0  02:39        0.64
  WS02003073           JUNCTION     0.34     0.39     4.46     0  02:39        0.39
  WS02003060           JUNCTION     0.44     0.51     5.44     0  02:38        0.51
  WS02003066           JUNCTION     0.26     0.33     5.88     0  03:06        0.33
  WS02003059           JUNCTION     0.73     0.80     5.49     0  02:22        0.80
  WS02003067           JUNCTION     0.62     0.74     6.06     0  03:06        0.74
  WS02004401           JUNCTION     0.74     0.97     6.97     0  03:04        0.97
  WS02004402           JUNCTION     0.77     0.99     6.95     0  03:04        0.99
  WS02004403           JUNCTION     0.79     0.99     6.92     0  03:04        0.99
  WS02004404           JUNCTION     0.86     1.06     6.91     0  03:04        1.06
  WS02004406           JUNCTION     0.86     1.03     6.86     0  03:04        1.03
  WS02004409           JUNCTION     0.56     0.75     6.52     0  03:05        0.75
  WS02004410           JUNCTION     0.57     0.76     6.48     0  03:05        0.76
  WS02004411           JUNCTION     0.59     0.76     6.44     0  03:05        0.76
  WS02004412           JUNCTION     0.60     0.76     6.40     0  03:06        0.76
  WS02004413           JUNCTION     0.76     0.91     6.38     0  03:06        0.91
  WS02004405           JUNCTION     0.85     1.04     6.89     0  03:04        1.04
  WS02006109           JUNCTION     0.84     1.10     7.72     0  03:02        1.09
  WS02006110           JUNCTION     0.81     1.02     7.60     0  03:02        1.01
  WS02006111           JUNCTION     0.25     0.35     7.06     0  03:03        0.34
  WS02006112           JUNCTION     0.92     1.20     7.08     0  02:50        1.18
  WS02006113           JUNCTION     0.38     0.51     7.40     0  03:02        0.51
  WS02006115           JUNCTION     0.64     0.88     7.02     0  03:03        0.88
  WS02006116           JUNCTION     0.72     0.96     7.00     0  03:04        0.96
  WS02006230           JUNCTION     0.84     1.17     7.91     0  03:02        1.17
  WS02006231           JUNCTION     0.57     0.82     7.95     0  03:02        0.82
  WS02006232           JUNCTION     0.71     0.94     7.98     0  03:03        0.94
  WS02006234           JUNCTION     0.64     0.86     8.01     0  03:03        0.85
  WS02006235           JUNCTION     0.67     0.88     8.04     0  03:03        0.87
  WS02006238           JUNCTION     0.70     0.90     8.05     0  03:03        0.89
  WS02006240           JUNCTION     0.61     0.80     8.09     0  02:30        0.80
  WS02006242           JUNCTION     0.67     0.86     8.13     0  02:30        0.86
  WS02006243           JUNCTION     0.55     0.74     8.16     0  02:30        0.74
  WS02006245           JUNCTION     0.53     0.71     8.19     0  02:30        0.70
  WS02006247           JUNCTION     0.54     0.71     8.21     0  02:30        0.71
  WS02006248           JUNCTION     0.48     0.64     8.23     0  02:30        0.64
  WS02006249           JUNCTION     0.50     0.65     8.24     0  02:30        0.64
  WS02006239           JUNCTION     0.66     0.86     8.07     0  02:30        0.85
  WS02006251           JUNCTION     0.50     0.69     8.36     0  02:30        0.69
  WS02006252           JUNCTION     0.44     0.59     8.84     0  04:26        0.59
  WS02006253           JUNCTION     0.53     0.72     8.36     0  02:30        0.71
  WS02006256           JUNCTION     1.10     1.21     8.15     0  02:30        1.21
  WS02004138           JUNCTION     0.16     0.19     7.44     0  06:52        0.19
  WS02004407           JUNCTION     0.25     0.33     6.64     0  03:05        0.33
  WS02006228           JUNCTION     0.85     1.17     7.82     0  03:02        1.16
  WS02006229           JUNCTION     0.83     1.18     7.87     0  03:02        1.18
  WS02006280           JUNCTION     0.07     0.19     8.46     0  03:02        0.19
  WS02006284           JUNCTION     0.38     0.55     8.95     0  03:02        0.55
  WS02006287           JUNCTION     0.11     0.28     9.24     0  03:01        0.28
  WSF200               JUNCTION     0.25     0.34     5.58     0  03:09        0.34
  HS02004901           JUNCTION     0.13     0.28    10.10     0  03:01        0.28
  HS02004881           JUNCTION     0.01     0.04     9.07     0  03:01        0.04
  HS02004876           JUNCTION     0.05     0.12     9.15     0  03:01        0.12
  HS02004870           JUNCTION     0.02     0.06     9.35     0  03:01        0.06
  HS02004862           JUNCTION     0.02     0.07     9.46     0  03:01        0.07
  HS02004856           JUNCTION     0.08     0.13     9.55     0  03:01        0.13
  HS02004852           JUNCTION     0.01     0.05     9.56     0  03:01        0.05
  HS02004848           JUNCTION     0.01     0.05     9.65     0  03:01        0.05
  HS02004842           JUNCTION     0.34     0.38     9.65     0  03:01        0.38
  HS02004837           JUNCTION     0.03     0.07     9.65     0  03:01        0.07
  HS02004830           JUNCTION     0.04     0.08     9.55     0  03:01        0.08
  HS02004824           JUNCTION     0.03     0.06     9.46     0  03:01        0.06
  HS02004817           JUNCTION     0.45     0.60     9.44     0  03:01        0.60
  HS02004807           JUNCTION     0.13     0.27     9.44     0  03:01        0.27
  HS02004802           JUNCTION     0.17     0.30     9.43     0  03:01        0.30
  HS02004799           JUNCTION     0.13     0.33     9.54     0  03:01        0.33
  HS02004792           JUNCTION     0.04     0.14     9.66     0  03:01        0.14
  HS02004788           JUNCTION     0.03     0.10    10.00     0  03:01        0.10
  HS02004785           JUNCTION     0.05     0.17    10.07     0  03:01        0.17
  HS02004777           JUNCTION     0.16     0.30    10.10     0  03:01        0.30
  HS02004770           JUNCTION     0.13     0.27    10.10     0  03:01        0.27
  HS02004480           JUNCTION     0.09     0.26     9.50     0  03:01        0.26
  HS02004479           JUNCTION     0.13     0.30     9.50     0  03:01        0.30
  HS02004478           JUNCTION     0.07     0.18     9.41     0  03:01        0.18
  YS02001745           JUNCTION     0.67     0.87     8.39     0  03:52        0.87
  YS02001748           JUNCTION     1.06     2.27     9.35     0  02:41        1.44
  YS02001751           JUNCTION     1.24     2.20     9.08     0  02:35        1.60
  YS02001754           JUNCTION     1.49     2.14     8.75     0  02:42        1.80
  YS02001762           JUNCTION     1.70     2.05     8.45     0  02:42        2.02
  YS02001765           JUNCTION     1.65     2.00     8.45     0  02:42        1.97
  YS02001767           JUNCTION     1.61     1.94     8.43     0  02:42        1.92
  YS02001770           JUNCTION     1.61     1.95     8.44     0  02:42        1.91
  YS02001774           JUNCTION     1.68     2.01     8.43     0  02:42        1.98
  YS02001779           JUNCTION     1.42     1.68     8.37     0  02:39        1.68
  YS02001882           JUNCTION     0.53     1.64     8.36     0  02:54        1.60
  YS02001884           JUNCTION     0.62     1.74     8.35     0  02:54        1.70
  YS02001759           JUNCTION     1.73     2.09     8.45     0  02:42        2.06
  YS02001887           JUNCTION     0.70     1.81     8.34     0  02:54        1.78
  YS02001890           JUNCTION     0.73     1.81     8.32     0  02:54        1.79
  YS02001898           JUNCTION     0.50     1.57     8.30     0  02:54        1.55
  YS02001901           JUNCTION     0.62     1.68     8.29     0  02:55        1.66
  YS02001904           JUNCTION     0.60     1.64     8.27     0  02:54        1.63
  YS02001907           JUNCTION     0.93     1.96     8.25     0  02:54        1.96
  YS02001910           JUNCTION     0.72     1.79     8.29     0  02:56        1.78
  YS02001915           JUNCTION     0.51     1.60     8.31     0  02:56        1.58
  YS02001918           JUNCTION     0.26     1.34     8.41     0  02:54        1.27
  YS02001619           JUNCTION     1.21     1.61     8.54     0  02:38        1.47
  YS02001629           JUNCTION     1.57     1.85     8.40     0  02:39        1.85
  YS02001641           JUNCTION     1.67     1.97     8.41     0  02:43        1.93
  YS02001644           JUNCTION     1.67     1.92     8.35     0  02:42        1.92
  YS02001652           JUNCTION     1.51     2.16     8.76     0  02:54        1.98
  YS02001655           JUNCTION     1.27     2.20     9.05     0  02:38        1.80
  YS02001920           JUNCTION     0.36     1.36     8.37     0  02:56        1.35
  YS02001923           JUNCTION     0.20     1.11     8.37     0  02:56        1.11
  YS02001926           JUNCTION     0.26     0.96     8.40     0  02:56        0.92
  YS02001929           JUNCTION     0.14     0.72     8.42     0  02:55        0.70
  YS02001658           JUNCTION     1.00     2.30     9.44     0  02:38        1.53
  YS02001661           JUNCTION     0.78     2.46     9.86     0  02:55        1.22
  YS02001664           JUNCTION     0.33     0.57     8.50     0  03:48        0.57
  YS02001622           JUNCTION     1.23     1.62     8.52     0  02:39        1.49
  YS02001633           JUNCTION     1.66     2.01     8.46     0  02:43        1.95
  YS02001649           JUNCTION     1.70     2.05     8.44     0  02:41        2.05
  YS02001757           JUNCTION     1.83     2.21     8.47     0  02:42        2.16
  YS02001895           JUNCTION     0.49     1.57     8.32     0  02:54        1.55
  YS02001625           JUNCTION     1.52     1.78     8.38     0  02:39        1.78
  YS02163301           JUNCTION     1.60     1.94     8.46     0  02:43        1.89
  YS02163601           JUNCTION     1.71     2.05     8.45     0  02:44        2.00
  YS02164001           JUNCTION     1.65     1.98     8.44     0  02:43        1.92
  YS02001647           JUNCTION     1.50     1.83     8.44     0  02:39        1.80
  YSB1154              JUNCTION     0.27     0.45     9.51     0  03:01        0.45
  YSB6556              JUNCTION     0.16     0.34     9.51     0  03:01        0.34
  YSB1174              JUNCTION     0.22     0.40     9.51     0  03:01        0.40
  YSB1171              JUNCTION     0.42     0.60     9.51     0  03:01        0.60
  YS02006553           JUNCTION     0.93     1.96     8.25     0  03:01        1.96
  YS02006561           JUNCTION     0.30     1.12     7.78     0  02:54        1.08
  YS02006556           JUNCTION     0.90     1.92     8.23     0  02:54        1.91
  YS02006558           JUNCTION     0.94     1.96     8.23     0  02:54        1.95
  YS02001783           JUNCTION     0.50     1.51     7.65     0  02:54        1.46
  YS02001784           JUNCTION     0.52     1.74     7.81     0  02:49        1.41
  YS02001786           JUNCTION     0.46     2.03     8.06     0  02:49        1.26
  YS02001788           JUNCTION     0.38     2.00     7.97     0  02:49        1.13
  YS02001790           JUNCTION     0.48     1.96     7.60     0  02:49        1.29
  YS02001791           JUNCTION     0.43     1.69     7.16     0  02:49        1.27
  YS02001793           JUNCTION     0.59     1.92     6.76     0  02:49        1.80
  WS02004139           JUNCTION     0.65     0.73     5.64     0  06:00        0.73
  WSC                  OUTFALL      0.34     0.39     1.06     0  02:40        0.39
  3                    OUTFALL      0.13     0.21     6.21     0  02:30        0.21
  4                    OUTFALL      0.05     0.15     7.15     0  02:30        0.14
  5                    OUTFALL      0.00     0.00     5.00     0  00:00        0.00
  JK-storage           STORAGE      2.17     5.80     6.60     0  02:49        5.80
  CC-storage           STORAGE      1.04     1.38     8.38     0  03:54        1.38
  XR-storage           STORAGE      6.48     7.72     5.72     0  02:58        7.72
  
  
  *******************
  Node Inflow Summary
  *******************
  
  -------------------------------------------------------------------------------------------------
                                  Maximum  Maximum                  Lateral       Total        Flow
                                  Lateral    Total  Time of Max      Inflow      Inflow     Balance
                                   Inflow   Inflow   Occurrence      Volume      Volume       Error
  Node                 Type           LPS      LPS  days hr:min    10^6 ltr    10^6 ltr     Percent
  -------------------------------------------------------------------------------------------------
  WS02001211           JUNCTION      7.35   388.07     0  04:06       0.207        8.12       0.462
  WS02001212           JUNCTION      0.00   388.53     0  04:07           0        8.09       0.255
  WS02001213           JUNCTION      0.00   388.91     0  04:06           0        8.07       0.302
  WS02003069           JUNCTION      0.32   925.61     0  02:38     0.00902        17.7       0.191
  WS02003072           JUNCTION      0.00   925.56     0  02:38           0        17.7       0.228
  WS02003073           JUNCTION      1.82   927.39     0  02:39      0.0514        17.7       0.261
  WS02003060           JUNCTION     16.53   925.40     0  02:37       0.466        17.7       0.181
  WS02003066           JUNCTION      0.00   660.79     0  03:06           0        9.26       0.055
  WS02003059           JUNCTION      0.00   389.62     0  04:06           0        8.04       0.506
  WS02003067           JUNCTION      0.00   660.73     0  03:06           0        9.27       0.112
  WS02004401           JUNCTION      0.00   663.10     0  03:02           0        9.53       0.254
  WS02004402           JUNCTION      0.00   662.14     0  03:03           0         9.5       0.236
  WS02004403           JUNCTION      0.00   661.41     0  03:04           0        9.48       0.212
  WS02004404           JUNCTION      0.16   661.53     0  03:04     0.00457        9.47       0.157
  WS02004406           JUNCTION      0.00   661.56     0  03:04           0        9.43       0.382
  WS02004409           JUNCTION      0.00   661.54     0  03:05           0        9.38       0.208
  WS02004410           JUNCTION      0.00   661.30     0  03:05           0        9.37       0.230
  WS02004411           JUNCTION      0.00   661.01     0  03:05           0        9.34       0.233
  WS02004412           JUNCTION      0.00   660.86     0  03:05           0        9.32       0.247
  WS02004413           JUNCTION      0.00   660.79     0  03:06           0         9.3       0.358
  WS02004405           JUNCTION      0.04   661.55     0  03:05     0.00107        9.45       0.234
  WS02006109           JUNCTION      1.23   655.23     0  03:02      0.0347         9.6       0.216
  WS02006110           JUNCTION      0.00   655.20     0  03:02           0        9.58       0.238
  WS02006111           JUNCTION      0.00   688.50     0  03:02           0        9.55       0.055
  WS02006112           JUNCTION     14.47   665.23     0  03:02      0.0629        9.61       0.336
  WS02006113           JUNCTION      0.00   655.79     0  03:02           0        9.56       0.123
  WS02006115           JUNCTION      0.00   665.91     0  03:02           0        9.57       0.254
  WS02006116           JUNCTION      0.00   662.87     0  03:02           0        9.55       0.223
  WS02006230           JUNCTION     10.28   402.78     0  05:10        0.29        7.72       0.181
  WS02006231           JUNCTION      0.00   392.48     0  05:10           0        7.45       0.205
  WS02006232           JUNCTION      0.00   392.48     0  05:10           0        7.47       0.234
  WS02006234           JUNCTION      0.00   392.48     0  05:10           0        7.48       0.142
  WS02006235           JUNCTION      0.00   392.48     0  05:10           0        7.52       0.162
  WS02006238           JUNCTION      0.00   336.09     0  03:30           0        5.56       0.166
  WS02006240           JUNCTION      0.00   330.83     0  03:30           0        5.56       0.286
  WS02006242           JUNCTION      0.00   341.42     0  02:01           0        5.57       0.337
  WS02006243           JUNCTION      0.00   355.36     0  02:00           0        5.57       0.205
  WS02006245           JUNCTION      0.00   364.05     0  02:00           0        5.58       0.233
  WS02006247           JUNCTION      0.00   371.43     0  02:00           0        5.59       0.189
  WS02006248           JUNCTION      0.00   376.61     0  02:00           0         5.6       0.142
  WS02006249           JUNCTION      0.00   452.65     0  02:30           0        6.78       0.212
  WS02006239           JUNCTION      0.00   334.80     0  03:30           0        5.56       0.265
  WS02006251           JUNCTION      0.08   453.97     0  02:30     0.00217        6.82       0.211
  WS02006252           JUNCTION      0.00   400.00     0  01:59           0        6.44       0.008
  WS02006253           JUNCTION      1.91    81.00     0  03:01     0.00814       0.382       2.189
  WS02006256           JUNCTION      0.00   600.00     0  02:10           0        7.57       0.035
  WS02004138           JUNCTION      0.00   380.00     0  04:00           0        7.95       0.056
  WS02004407           JUNCTION      0.00   661.63     0  03:04           0        9.39       0.094
  WS02006228           JUNCTION      0.00   654.03     0  03:02           0        9.58       0.162
  WS02006229           JUNCTION      0.00   652.33     0  03:02           0         9.6       0.136
  WS02006280           JUNCTION      0.00   375.54     0  03:02           0        1.89       0.004
  WS02006284           JUNCTION      0.10   375.54     0  03:02      0.0027        1.89       0.064
  WS02006287           JUNCTION      0.00   375.27     0  03:01           0        1.89       0.037
  WSF200               JUNCTION      0.00   660.77     0  03:06           0        9.25       0.056
  HS02004901           JUNCTION     17.47    17.47     0  03:01      0.0757      0.0759       2.381
  HS02004881           JUNCTION      7.55    79.19     0  03:01      0.0331       0.357       0.089
  HS02004876           JUNCTION     14.15    72.10     0  03:01      0.0636       0.324       0.171
  HS02004870           JUNCTION     14.17    58.27     0  03:01      0.0626       0.261       0.043
  HS02004862           JUNCTION     13.95    44.46     0  03:01      0.0685       0.198       0.089
  HS02004856           JUNCTION     10.64    30.79     0  03:01      0.0471       0.131       1.117
  HS02004852           JUNCTION      0.00    20.44     0  03:01           0       0.084       0.069
  HS02004848           JUNCTION     32.07    32.07     0  03:01       0.151       0.151       0.033
  HS02004842           JUNCTION      0.00    11.42     0  03:01           0      0.0801      19.391
  HS02004837           JUNCTION     30.75    41.91     0  03:01       0.288       0.355       0.229
  HS02004830           JUNCTION      0.15    41.84     0  03:01     0.00423       0.346       0.358
  HS02004824           JUNCTION     40.25    81.79     0  03:01       0.197       0.542       0.100
  HS02004817           JUNCTION      0.60    82.18     0  03:01      0.0169       0.558       3.079
  HS02004807           JUNCTION     26.15   107.24     0  03:01       0.115       0.657       0.656
  HS02004802           JUNCTION      0.00   106.49     0  03:01           0       0.653       0.617
  HS02004799           JUNCTION     21.02   227.51     0  03:01      0.0932        1.06       0.236
  HS02004792           JUNCTION     88.55   207.33     0  03:01       0.396       0.966       0.043
  HS02004788           JUNCTION     30.78   119.37     0  03:01       0.177       0.571       0.069
  HS02004785           JUNCTION      0.15    89.79     0  03:01     0.00423       0.396       0.125
  HS02004777           JUNCTION      0.03    90.24     0  03:01    0.000846       0.397       1.326
  HS02004770           JUNCTION     73.89    90.93     0  03:01       0.324       0.398       0.787
  HS02004480           JUNCTION      0.00   269.27     0  03:01           0        1.25       0.098
  HS02004479           JUNCTION      0.00    42.82     0  03:02           0       0.204       0.360
  HS02004478           JUNCTION      0.00   375.17     0  03:01           0        1.89       0.018
  YS02001745           JUNCTION    297.18   442.82     0  02:41        2.34        2.35       0.371
  YS02001748           JUNCTION      0.04   619.43     0  02:41     0.00127        2.34       0.955
  YS02001751           JUNCTION      0.01   377.45     0  02:35     0.00031        2.31       1.023
  YS02001754           JUNCTION      0.26   307.79     0  03:01     0.00733        2.29       1.082
  YS02001762           JUNCTION      0.00   331.56     0  02:54           0        1.86       1.133
  YS02001765           JUNCTION      0.00   331.57     0  02:54           0        1.86       1.305
  YS02001767           JUNCTION      0.54   331.87     0  02:54      0.0151        1.89       1.914
  YS02001770           JUNCTION    373.02   373.02     0  03:01        2.63        2.65       1.196
  YS02001774           JUNCTION      0.00   206.13     0  03:10           0       0.766       3.397
  YS02001779           JUNCTION      0.01   205.93     0  03:10    0.000141       0.733       2.115
  YS02001882           JUNCTION      0.00    32.18     0  02:50           0      0.0162      15.959
  YS02001884           JUNCTION      0.00    31.92     0  02:50           0      0.0522      13.297
  YS02001759           JUNCTION    359.84   652.95     0  02:54        2.43        4.25       0.540
  YS02001887           JUNCTION    453.35   453.40     0  03:00         2.8        2.83       0.300
  YS02001890           JUNCTION      0.00   453.32     0  03:01           0        2.79       0.330
  YS02001898           JUNCTION      0.00   453.37     0  03:01           0        2.77       0.119
  YS02001901           JUNCTION      0.00   453.35     0  03:01           0        2.77       0.247
  YS02001904           JUNCTION      0.00   453.50     0  03:01           0        2.77       0.227
  YS02001907           JUNCTION      0.00   912.10     0  02:57           0        6.12       0.389
  YS02001910           JUNCTION      0.00   485.72     0  02:57           0        3.37       0.350
  YS02001915           JUNCTION    263.65   485.72     0  02:57        1.96         3.4       0.179
  YS02001918           JUNCTION      0.00   240.01     0  02:57           0        1.46       0.127
  YS02001619           JUNCTION    257.27   257.27     0  03:01        1.95        1.95       0.619
  YS02001629           JUNCTION      0.00   207.16     0  02:49           0        1.63       1.767
  YS02001641           JUNCTION      0.00   436.77     0  02:49           0        3.84       0.549
  YS02001644           JUNCTION    282.70   893.25     0  03:21        2.25        7.37       0.355
  YS02001652           JUNCTION      0.00   373.20     0  03:02           0        2.04       1.156
  YS02001655           JUNCTION      0.15   372.78     0  03:02     0.00434        2.07       1.231
  YS02001920           JUNCTION      2.87   240.06     0  02:57      0.0809        1.44       0.204
  YS02001923           JUNCTION      0.04   277.59     0  02:56     0.00106        1.35       0.040
  YS02001926           JUNCTION      0.05   196.72     0  02:56     0.00147        1.34       0.256
  YS02001929           JUNCTION    129.40   129.40     0  03:01        1.34        1.34       0.040
  YS02001658           JUNCTION      0.00   639.68     0  02:39           0         2.1       1.038
  YS02001661           JUNCTION      0.00   690.02     0  02:53           0        2.81      -0.242
  YS02001664           JUNCTION    327.80   362.23     0  02:52        2.09         2.8       0.155
  YS02001622           JUNCTION      0.00   257.39     0  03:01           0        1.94       1.659
  YS02001633           JUNCTION    287.40   436.79     0  02:49        2.32         3.9       0.830
  YS02001649           JUNCTION      0.00   928.13     0  02:49           0        5.09       0.736
  YS02001757           JUNCTION      0.00  1762.70     0  02:50           0        10.2       0.913
  YS02001895           JUNCTION      0.00   453.41     0  03:01           0        2.78       0.176
  YS02001625           JUNCTION      0.00   257.36     0  03:01           0         1.9       2.066
  YS02163301           JUNCTION      0.00   213.11     0  02:38           0        1.61       1.501
  YS02163601           JUNCTION      0.11   436.93     0  02:49      0.0031        3.86       0.783
  YS02164001           JUNCTION      0.00   436.95     0  02:49           0        3.84       0.519
  YS02001647           JUNCTION      0.00   662.77     0  02:49           0        3.88       0.725
  YSB1154              JUNCTION     25.19    25.19     0  03:01       0.113       0.114       1.286
  YSB6556              JUNCTION      0.00    24.91     0  03:01           0       0.115       1.100
  YSB1174              JUNCTION     19.06    19.06     0  03:01      0.0821      0.0827       1.581
  YSB1171              JUNCTION      0.00    43.19     0  03:01           0       0.203       3.219
  YS02006553           JUNCTION      0.00   666.96     0  03:17           0        5.92       0.263
  YS02006561           JUNCTION      0.00   964.21     0  03:00           0        8.43       0.007
  YS02006556           JUNCTION      0.00   667.02     0  03:17           0        5.92       0.189
  YS02006558           JUNCTION    392.87   964.63     0  03:00        2.57        8.46       0.064
  YS02001783           JUNCTION      0.00   964.23     0  03:00           0        8.43       0.028
  YS02001784           JUNCTION      1.06   965.30     0  03:00      0.0299        8.46       0.045
  YS02001786           JUNCTION      0.06   965.26     0  03:00     0.00159        8.46       0.041
  YS02001788           JUNCTION      0.07   965.29     0  03:01       0.002        8.46       0.023
  YS02001790           JUNCTION      0.15   965.49     0  03:00     0.00437        8.46       0.032
  YS02001791           JUNCTION      0.00   965.48     0  03:01           0        8.46       0.010
  YS02001793           JUNCTION      0.00   965.61     0  03:00           0        8.46      -0.001
  WS02004139           JUNCTION      0.32   380.32     0  06:52     0.00905        7.96       0.484
  WSC                  OUTFALL       0.00   927.41     0  02:40           0        17.6       0.000
  3                    OUTFALL       0.00   530.64     0  02:30           0        5.57       0.000
  4                    OUTFALL       0.00   199.88     0  02:30           0        1.17       0.000
  5                    OUTFALL       0.00     0.00     0  00:00           0           0       0.000 ltr
  JK-storage           STORAGE       0.00   965.64     0  03:01           0        8.61     -11.942
  CC-storage           STORAGE       0.00  1762.45     0  02:50           0        9.58       0.028
  XR-storage           STORAGE     690.11   690.11     0  03:01        9.61        10.2      -0.003
  
  
  **********************
  Node Surcharge Summary
  **********************
  
  Surcharging occurs when water rises above the top of the highest conduit.
  ---------------------------------------------------------------------
                                               Max. Height   Min. Depth
                                   Hours       Above Crown    Below Rim
  Node                 Type      Surcharged         Meters       Meters
  ---------------------------------------------------------------------
  WS02004404           JUNCTION        0.64          0.055        2.725
  WS02004406           JUNCTION        0.27          0.028        2.422
  WS02004405           JUNCTION        0.50          0.043        2.757
  WS02006109           JUNCTION        4.11          0.285        1.535
  WS02006110           JUNCTION        1.14          0.105        1.745
  WS02006112           JUNCTION        1.37          0.200        1.480
  WS02006230           JUNCTION        0.56          0.087        1.483
  WS02006231           JUNCTION        0.70          0.113        1.417
  WS02006232           JUNCTION        4.50          0.245        1.235
  WS02006234           JUNCTION        1.04          0.135        1.105
  WS02006235           JUNCTION        3.25          0.169        1.121
  WS02006238           JUNCTION        3.86          0.185        1.245
  WS02006240           JUNCTION        0.88          0.090        1.300
  WS02006242           JUNCTION        3.26          0.128        0.692
  WS02006243           JUNCTION        0.37          0.032        0.738
  WS02006247           JUNCTION        0.01          0.002        0.758
  WS02006239           JUNCTION        1.80          0.117        1.173
  WS02006252           JUNCTION        4.06          0.193        0.907
  WS02006228           JUNCTION        3.95          0.339        1.861
  YS02001748           JUNCTION        4.95          1.190        0.000
  YS02001751           JUNCTION        5.19          1.200        0.000
  YS02001754           JUNCTION        5.41          1.090        0.060
  YS02001762           JUNCTION        5.64          1.053        0.097
  YS02001765           JUNCTION        5.61          1.002        0.098
  YS02001767           JUNCTION        5.58          0.944        0.086
  YS02001770           JUNCTION        5.57          0.920        0.000
  YS02001774           JUNCTION        5.63          1.012        0.038
  YS02001779           JUNCTION        5.40          0.680        0.000
  YS02001882           JUNCTION        0.73          0.641        0.189
  YS02001884           JUNCTION        0.76          0.675        0.195
  YS02001759           JUNCTION        5.66          1.090        0.120
  YS02001887           JUNCTION        0.87          0.755        0.195
  YS02001890           JUNCTION        0.90          0.760        0.000
  YS02001898           JUNCTION        0.70          0.538        0.202
  YS02001901           JUNCTION        0.82          0.677        0.193
  YS02001904           JUNCTION        0.79          0.639        0.211
  YS02001907           JUNCTION        1.48          0.950        0.000
  YS02001910           JUNCTION        0.96          0.785        0.315
  YS02001915           JUNCTION        0.72          0.596        0.404
  YS02001918           JUNCTION        0.48          0.342        0.468
  YS02001619           JUNCTION        5.21          0.610        0.000
  YS02001629           JUNCTION        5.23          0.470        0.000
  YS02001641           JUNCTION        5.62          0.972        0.128
  YS02001644           JUNCTION        5.62          0.920        0.000
  YS02001652           JUNCTION        5.42          1.130        0.000
  YS02001655           JUNCTION        5.23          1.200        0.000
  YS02001920           JUNCTION        0.52          0.358        0.782
  YS02001658           JUNCTION        5.00          1.300        0.000
  YS02001661           JUNCTION        0.22          1.390        0.000
  YS02001622           JUNCTION        5.26          0.620        0.000
  YS02001633           JUNCTION        5.60          0.991        0.069
  YS02001649           JUNCTION        5.64          1.050        0.000
  YS02001757           JUNCTION        5.74          1.210        0.000
  YS02001895           JUNCTION        0.71          0.570        0.180
  YS02001625           JUNCTION        5.54          0.780        0.000
  YS02163301           JUNCTION        5.58          0.944        0.086
  YS02163601           JUNCTION        5.64          1.048        0.032
  YS02164001           JUNCTION        5.61          0.983        0.117
  YS02001647           JUNCTION        5.46          0.827        0.073
  YS02006553           JUNCTION        1.56          0.965        0.225
  YS02006561           JUNCTION        0.61          0.316        0.834
  YS02006556           JUNCTION        1.19          0.882        0.468
  YS02006558           JUNCTION        1.15          0.861        0.539
  YS02001783           JUNCTION        1.11          0.706        0.894
  YS02001784           JUNCTION        1.12          0.939        0.551
  YS02001786           JUNCTION        1.09          1.227        0.203
  YS02001788           JUNCTION        1.07          1.196        0.284
  YS02001790           JUNCTION        1.41          1.157        0.000
  YS02001791           JUNCTION        1.45          0.885        1.035
  YS02001793           JUNCTION        1.88          0.924        1.676
  
  
  *********************
  Node Flooding Summary
  *********************
  
  Flooding refers to all water that overflows a node, whether it ponds or not.
  --------------------------------------------------------------------------
                                                             Total   Maximum
                                 Maximum   Time of Max       Flood    Ponded
                        Hours       Rate    Occurrence      Volume     Depth
  Node                 Flooded       LPS   days hr:min    10^6 ltr    Meters
  --------------------------------------------------------------------------
  YS02001748              0.01    201.96      0  02:41       0.000     0.000
  YS02001751              0.01    139.68      0  02:35       0.000     0.000
  YS02001770              0.01      5.94      0  02:42       0.000     0.000
  YS02001779              2.03    205.88      0  03:10       0.710     0.000
  YS02001890              0.01      5.70      0  02:54       0.000     0.000
  YS02001907              0.34    336.66      0  03:00       0.193     0.000
  YS02001619              0.01     23.19      0  02:41       0.000     0.000
  YS02001629              0.01     38.75      0  02:40       0.001     0.000
  YS02001644              3.58    892.84      0  03:21       4.751     0.000
  YS02001652              0.01     25.88      0  03:04       0.000     0.000
  YS02001655              0.01     23.13      0  03:06       0.000     0.000
  YS02001658              0.01    344.54      0  02:39       0.001     0.000
  YS02001661              0.01    200.94      0  03:04       0.001     0.000
  YS02001622              0.01     50.83      0  02:40       0.000     0.000
  YS02001649              0.08     56.02      0  03:04       0.005     0.000
  YS02001757              0.01     14.63      0  02:42       0.000     0.000
  YS02001625              0.89    168.37      0  03:01       0.238     0.000
  YS02001790              0.01     18.58      0  02:49       0.000     0.000
  JK-storage              1.29    836.65      0  03:30       2.206     0.000
  XR-storage              2.22    585.51      0  03:00       1.535     0.000
  
  
  **********************
  Storage Volume Summary
  **********************
  
  --------------------------------------------------------------------------------------------------
                         Average     Avg  Evap Exfil       Maximum     Max    Time of Max    Maximum
                          Volume    Pcnt  Pcnt  Pcnt        Volume    Pcnt     Occurrence    Outflow
  Storage Unit           1000 m3    Full  Loss  Loss       1000 m3    Full    days hr:min        LPS
  --------------------------------------------------------------------------------------------------
  JK-storage               0.109      37     0     0         0.291     100       0  02:49     600.00
  CC-storage               2.900      18     0     0         3.848      25       0  03:54     400.00
  XR-storage               0.778      84     0     0         0.926     100       0  02:58     380.00
  
  
  ***********************
  Outfall Loading Summary
  ***********************
  
  -----------------------------------------------------------
                         Flow       Avg       Max       Total
                         Freq      Flow      Flow      Volume
  Outfall Node           Pcnt       LPS       LPS    10^6 ltr
  -----------------------------------------------------------
  WSC                  100.00    713.06    927.41      17.622
  3                     94.26    277.18    530.64       5.575
  4                     65.82     77.27    199.88       1.173
  5                      0.00      0.00      0.00       0.000
  -----------------------------------------------------------
  System                65.02   1067.50   1639.40      24.369
  
  
  ********************
  Link Flow Summary
  ********************
  
  -----------------------------------------------------------------------------
                                 Maximum  Time of Max   Maximum    Max/    Max/
                                  |Flow|   Occurrence   |Veloc|    Full    Full
  Link                 Type          LPS  days hr:min     m/sec    Flow   Depth
  -----------------------------------------------------------------------------
  WS02003066WSF200     CONDUIT    660.77     0  03:06      2.91    0.11    0.26
  WS02006287WS02006284 CONDUIT    375.44     0  03:02      1.98    0.17    0.29
  WS02006284WS02006280 CONDUIT    375.54     0  03:02      2.22    0.16    0.27
  WS02006280WS02006229 CONDUIT    375.58     0  03:02      3.58    0.08    0.19
  WS02006229WS02006228 CONDUIT    654.03     0  03:02      1.30    2.17    1.00
  WS02006256WS02006235 CONDUIT    149.95     0  00:15      2.14    1.59    1.00
  WS02006253WS02006251 CONDUIT     82.34     0  02:39      0.46    0.25    0.98
  WS02006252WS02006251 CONDUIT    400.58     0  03:31      3.19    1.47    1.00
  WS02006251WS02006249 CONDUIT    452.65     0  02:30      1.24    1.31    0.95
  WS02006249WS02006248 CONDUIT    376.61     0  02:00      1.22    2.06    0.91
  WS02006248WS02006247 CONDUIT    371.43     0  02:00      1.20    0.81    0.96
  WS02006247WS02006245 CONDUIT    364.05     0  02:00      1.16    2.89    1.00
  WS02006245WS02006243 CONDUIT    355.36     0  02:00      1.21    1.05    1.00
  WS02006243WS02006242 CONDUIT    341.42     0  02:01      1.03    0.73    1.00
  WS02006242WS02006240 CONDUIT    330.83     0  03:30      0.92    1.31    1.00
  WS02006240WS02006239 CONDUIT    334.80     0  03:30      0.90    1.05    1.00
  WS02006239WS02006238 CONDUIT    336.09     0  03:30      0.87    1.08    1.00
  WS02006238WS02006235 CONDUIT    336.93     0  03:30      0.88    0.75    1.00
  WS02006235WS02006234 CONDUIT    392.48     0  05:10      1.03    4.14    1.00
  WS02006234WS02006232 CONDUIT    392.48     0  05:10      1.02    0.79    1.00
  WS02006232WS02006231 CONDUIT    392.48     0  05:10      1.06    0.82    1.00
  WS02006231WS02006230 CONDUIT    392.50     0  05:10      1.32    5.95    1.00
  WS02006230WS02006229 CONDUIT    402.82     0  05:10      1.05    8.96    1.00
  WS02006228WS02006109 CONDUIT    654.00     0  03:02      1.30    2.86    1.00
  WS02006116WS02004401 CONDUIT    663.10     0  03:02      0.85    0.91    0.97
  WS02006115WS02006116 CONDUIT    662.87     0  03:02      0.90    0.85    0.89
  WS02006113WS02006111 CONDUIT    688.50     0  03:02      2.59    0.83    0.53
  WS02006112WS02006115 CONDUIT    665.91     0  03:02      0.87    0.39    0.94
  WS02006111WS02006112 CONDUIT    654.23     0  03:03      1.72    0.31    0.71
  WS02006110WS02006113 CONDUIT    655.79     0  03:02      1.50    0.60    0.82
  WS02006109WS02006110 CONDUIT    655.20     0  03:02      1.30    1.26    1.00
  WS02004411WS02004412 CONDUIT    660.86     0  03:05      1.03    0.94    0.76
  WS02004401WS02004402 CONDUIT    662.14     0  03:03      0.85    0.79    0.98
  WS02004413WS02003067 CONDUIT    660.73     0  03:06      1.25    0.28    0.64
  WS02004412WS02004413 CONDUIT    660.79     0  03:06      0.94    0.44    0.84
  WS02004410WS02004411 CONDUIT    661.01     0  03:05      1.03    0.90    0.76
  WS02004409WS02004410 CONDUIT    661.30     0  03:05      1.04    0.86    0.76
  WS02004407WS02004409 CONDUIT    661.54     0  03:05      1.53    0.23    0.54
  WS02004406WS02004407 CONDUIT    661.63     0  03:04      1.19    0.30    0.66
  WS02004405WS02004406 CONDUIT    661.56     0  03:04      0.84    1.30    1.00
  WS02004404WS02004405 CONDUIT    661.52     0  03:05      0.96    6.48    1.00
  WS02004403WS02004404 CONDUIT    661.36     0  03:04      0.84    0.48    1.00
  WS02004402WS02004403 CONDUIT    661.41     0  03:04      0.85    0.95    0.99
  WS02004139WS02001211 CONDUIT    380.73     0  04:06      0.69    0.48    0.59
  WS02004138WS02004139 CONDUIT    380.00     0  06:52      2.95    0.08    0.43
  WS02003067WS02003066 CONDUIT    660.79     0  03:06      1.36    0.21    0.45
  WS02001213WS02003059 CONDUIT    389.62     0  04:06      0.67    0.64    0.77
  WS02001212WS02001213 CONDUIT    388.91     0  04:06      1.30    0.60    0.46
  WS02001211WS02001212 CONDUIT    388.53     0  04:07      0.76    0.30    0.64
  WS02003072WS02003073 CONDUIT    925.57     0  02:39      1.72    2.00    0.48
  WS02003069WS02003072 CONDUIT    925.56     0  02:38      1.61    0.45    0.51
  WS02003060WS02003069 CONDUIT    925.29     0  02:38      1.86    0.36    0.45
  WS02003059WS02003060 CONDUIT    390.47     0  04:05      0.92    0.25    0.65
  HS02004901HS02004770 CONDUIT     17.71     0  03:01      0.07    0.07    0.39
  HS02004876HS02004881 CONDUIT     71.90     0  03:01      0.92    0.76    0.11
  HS02004870HS02004876 CONDUIT     58.03     0  03:01      0.63    0.04    0.13
  HS02004842HS02004848 CONDUIT     11.42     0  03:01      0.05    0.01    0.30
  HS02004837HS02004842 CONDUIT     11.94     0  03:02      0.42    0.01    0.32
  HS02004830HS02004837 CONDUIT     41.69     0  03:01      0.56    0.04    0.11
  HS02004824HS02004830 CONDUIT     41.67     0  03:01      0.58    0.05    0.10
  HS02004817HS02004824 CONDUIT     81.58     0  03:01      0.25    0.04    0.47
  HS02004770HS02004777 CONDUIT     90.21     0  03:01      0.32    0.16    0.41
  HS02004799HS02004480 CONDUIT    226.97     0  03:01      0.78    0.29    0.42
  HS02004792HS02004799 CONDUIT    206.60     0  03:01      0.88    0.13    0.33
  HS02004788HS02004792 CONDUIT    118.94     0  03:01      1.01    0.08    0.17
  HS02004785HS02004788 CONDUIT     89.52     0  03:02      0.66    0.67    0.19
  HS02004777HS02004785 CONDUIT     89.64     0  03:01      0.38    0.11    0.33
  HS02004480HS02004478 CONDUIT    269.12     0  03:01      1.20    1.13    0.32
  HS02004479HS02004480 CONDUIT     44.17     0  03:02      0.23    0.04    0.40
  HS02004862HS02004870 CONDUIT     44.23     0  03:01      0.64    0.05    0.10
  HS02004848HS02004852 CONDUIT     20.44     0  03:01      0.44    0.02    0.07
  HS02004856HS02004862 CONDUIT     30.57     0  03:01      0.47    0.03    0.09
  HS02004852HS02004856 CONDUIT     20.26     0  03:01      0.24    0.02    0.12
  HS02004802HS02004478 CONDUIT    106.59     0  03:02      0.45    0.09    0.35
  HS02004478WS02006287 CONDUIT    375.27     0  03:01      1.68    0.11    0.25
  HS02004817HS02004807 CONDUIT     82.18     0  03:01      0.19    0.05    0.62
  HS02004807HS02004802 CONDUIT    106.49     0  03:01      0.38    0.20    0.40
  YS02001759YS02001757 CONDUIT    652.78     0  02:54      0.83    0.46    1.00
  YS02001762YS02001759 CONDUIT    331.75     0  02:54      0.42    0.38    1.00
  YS02001765YS02001762 CONDUIT    331.56     0  02:54      0.42    0.31    1.00
  YS02001770YS02001767 CONDUIT    331.33     0  02:54      0.42    1.31    1.00
  YS02001774YS02001770 CONDUIT    206.13     0  03:10      0.26    0.13    1.00
  YS02001779YS02001774 CONDUIT    205.93     0  03:10      0.26    0.10    1.00
  YS02001649YS02001757 CONDUIT    928.29     0  02:49      1.18    0.56    1.00
  YS02001767YS02001765 CONDUIT    331.57     0  02:54      0.42    0.42    1.00
  YS02006561YS02001783 CONDUIT    964.23     0  03:00      2.16    0.50    1.00
  YS02001783YS02001784 CONDUIT    964.24     0  03:00      1.92    1.33    1.00
  YS02001784YS02001785 CONDUIT    965.21     0  03:00      1.92    2.25    1.00
  YS02001788YS02001790 CONDUIT    965.33     0  03:00      2.41    0.71    1.00
  YS02001790YS02001791 CONDUIT    965.48     0  03:01      2.95    1.05    1.00
  YS02001791YS02001793 CONDUIT    965.61     0  03:00      5.82    0.41    1.00
  YS02001910YS02001907 CONDUIT    485.77     0  02:57      0.62    0.27    1.00
  YS02001786YS02001788 CONDUIT    965.22     0  03:01      2.30    1.86    1.00
  YS02001915YS02001910 CONDUIT    485.72     0  02:57      0.62    0.24    1.00
  YS02001918YS02001915 CONDUIT    240.43     0  02:57      0.44    0.13    1.00
  YS02001923YS02001920 CONDUIT    237.19     0  02:57      0.68    0.11    1.00
  YS02001926YS02001923 CONDUIT    277.55     0  02:56      0.79    0.40    0.93
  YS02001929YS02001926 CONDUIT    196.67     0  02:56      0.85    0.09    0.82
  YS02001920YS02001918 CONDUIT    240.01     0  02:57      0.67    0.23    1.00
  YS02001629YS02163301 CONDUIT    213.11     0  02:38      0.27    0.26    1.00
  YS02001619YS02001622 CONDUIT    257.39     0  03:01      0.61    0.38    1.00
  YS02001622YS02001625 CONDUIT    257.36     0  03:01      0.33    0.14    1.00
  YS02001625YS02001629 CONDUIT    207.16     0  02:49      0.26    0.10    1.00
  YS02163301YS02001633 CONDUIT    213.21     0  02:38      0.27    0.20    1.00
  YS02163601YS02164001 CONDUIT    436.95     0  02:49      0.56    0.39    1.00
  YS02164001YS02001641 CONDUIT    436.77     0  02:49      0.56    0.60    1.00
  YS02001641YS02001644 CONDUIT    436.71     0  02:49      0.56    1.41    1.00
  YS02001647YS02001649 CONDUIT    662.66     0  02:49      0.84    0.35    1.00
  YS02006553YS02006556 CONDUIT    667.02     0  03:17      0.85    0.57    1.00
  YS02006556YS02006558 CONDUIT    667.17     0  03:17      0.85    0.53    1.00
  YSB6556YSB1171       CONDUIT     24.81     0  03:03      0.09    0.03    0.67
  YS02001907YS02006553 CONDUIT    666.96     0  03:17      0.74    0.78    1.00
  YS02006558YS02006561 CONDUIT    964.21     0  03:00      3.48    2.13    1.00
  YS02001633YS02163601 CONDUIT    436.82     0  02:49      0.56    0.46    1.00
  YS02001644YS02001647 CONDUIT    662.77     0  02:49      0.84    0.39    1.00
  YS02001745YS02001748 CONDUIT    619.39     0  02:41      1.48    0.24    0.94
  YS02001748YS02001751 CONDUIT    377.44     0  02:35      1.05    0.19    1.00
  YS02001751YS02001754 CONDUIT    307.53     0  03:01      0.88    0.15    1.00
  YS02001754YS02001757 CONDUIT    307.70     0  03:01      0.39    0.12    1.00
  YS02001882YS02001884 CONDUIT     32.18     0  02:50      0.09    0.04    1.00
  YS02001884YS02001887 CONDUIT     31.92     0  02:50      0.05    0.04    1.00
  YS02001890YS02001895 CONDUIT    453.41     0  03:01      0.58    0.21    1.00
  YS02001895YS02001898 CONDUIT    453.37     0  03:01      0.59    0.79    1.00
  YS02001898YS02001901 CONDUIT    453.35     0  03:01      0.58    0.29    1.00
  YS02001901YS02001904 CONDUIT    453.50     0  03:01      0.58    0.70    1.00
  YS02001904YS02001907 CONDUIT    453.48     0  03:01      0.58    0.16    1.00
  YS02001887YS02001890 CONDUIT    453.32     0  03:01      0.58    0.78    1.00
  YS02001652YS02001649 CONDUIT    373.47     0  03:02      0.50    0.19    1.00
  YS02001655YS02001652 CONDUIT    373.20     0  03:02      0.93    0.18    1.00
  YS02001658YS02001655 CONDUIT    372.63     0  03:02      1.21    0.16    1.00
  YS02001661YS02001658 CONDUIT    639.68     0  02:39      1.56    0.25    1.00
  YS02001664YS02001661 CONDUIT    690.02     0  02:53      1.52    0.22    0.71
  YSB1154YSB6556       CONDUIT     24.91     0  03:01      0.18    0.04    0.56
  YSB1174YSB1171       CONDUIT     18.78     0  03:01      0.07    0.03    0.68
  YSB1171HS02004479    CONDUIT     42.82     0  03:02      0.54    0.03    0.53
  HS02004881HS02006253 CONDUIT     79.15     0  03:01      2.04    0.02    0.29
  YS02001793JiankangQianchi CONDUIT    965.64     0  03:01     16.39    0.08    1.00
  YS02001757CaochengTiaoxuchi CONDUIT   1762.45     0  02:50      2.33    0.77    1.00
  WSF200WS02003060     CONDUIT    660.19     0  03:06      1.98    0.15    0.35
  1                    CONDUIT    927.41     0  02:40      3.26    0.32    0.39
  2                    CONDUIT    199.88     0  02:30      5.84    0.48    0.49
  3                    CONDUIT    530.64     0  02:30      9.89    0.85    0.71
  4                    CONDUIT      0.00     0  00:00      0.00    0.00    0.00
  CC-Pump-1            PUMP       200.00     0  01:59              1.00
  CC-Pump-2            PUMP       200.00     0  01:59              1.00
  JK-Pump-1            PUMP       300.00     0  00:20              1.00
  JK-Pump-2            PUMP       300.00     0  02:10              1.00
  XR-Pump-1            PUMP        95.00     0  00:00              1.00
  XR-Pump-2            PUMP        95.00     0  00:40              1.00
  XR-Pump-3            PUMP        95.00     0  00:20              1.00
  XR-Pump-4            PUMP        95.00     0  00:00              1.00
  
  
  ***************************
  Flow Classification Summary
  ***************************
  
  -------------------------------------------------------------------------------------
                      Adjusted    ---------- Fraction of Time in Flow Class ---------- 
                       /Actual         Up    Down  Sub   Sup   Up    Down  Norm  Inlet 
  Conduit               Length    Dry  Dry   Dry   Crit  Crit  Crit  Crit  Ltd   Ctrl  
  -------------------------------------------------------------------------------------
  WS02003066WSF200        1.00   0.02  0.03  0.00  0.00  0.95  0.00  0.00  0.62  0.00
  WS02006287WS02006284    1.00   0.03  0.01  0.00  0.60  0.36  0.00  0.00  0.65  0.00
  WS02006284WS02006280    1.00   0.04  0.00  0.00  0.00  0.00  0.00  0.96  0.00  0.00
  WS02006280WS02006229    1.00   0.04  0.00  0.00  0.00  0.00  0.00  0.96  0.00  0.00
  WS02006229WS02006228    1.00   0.00  0.00  0.00  1.00  0.00  0.00  0.00  0.00  0.00
  WS02006256WS02006235    1.00   0.00  0.00  0.00  1.00  0.00  0.00  0.00  0.00  0.00
  WS02006253WS02006251    1.00   0.02  0.01  0.00  0.96  0.00  0.00  0.00  0.00  0.00
  WS02006252WS02006251    1.00   0.07  0.00  0.00  0.00  0.00  0.93  0.00  0.00  0.00
  WS02006251WS02006249    1.00   0.00  0.00  0.00  1.00  0.00  0.00  0.00  0.22  0.00
  WS02006249WS02006248    1.00   0.00  0.00  0.00  0.93  0.00  0.07  0.00  0.00  0.00
  WS02006248WS02006247    1.00   0.00  0.00  0.00  0.98  0.00  0.00  0.02  0.11  0.00
  WS02006247WS02006245    1.00   0.00  0.00  0.00  0.98  0.00  0.00  0.01  0.00  0.00
  WS02006245WS02006243    1.00   0.01  0.00  0.00  0.96  0.00  0.00  0.03  0.01  0.00
  WS02006243WS02006242    1.00   0.01  0.00  0.00  0.99  0.00  0.00  0.00  0.17  0.00
  WS02006242WS02006240    1.00   0.00  0.00  0.00  1.00  0.00  0.00  0.00  0.00  0.00
  WS02006240WS02006239    1.00   0.00  0.00  0.00  0.97  0.00  0.00  0.02  0.01  0.00
  WS02006239WS02006238    1.00   0.00  0.00  0.00  1.00  0.00  0.00  0.00  0.00  0.00
  WS02006238WS02006235    1.00   0.00  0.00  0.00  1.00  0.00  0.00  0.00  0.00  0.00
  WS02006235WS02006234    1.00   0.00  0.00  0.00  0.97  0.00  0.02  0.00  0.00  0.00
  WS02006234WS02006232    1.00   0.00  0.00  0.00  1.00  0.00  0.00  0.00  0.05  0.00
  WS02006232WS02006231    1.00   0.00  0.00  0.00  0.99  0.00  0.00  0.00  0.00  0.00
  WS02006231WS02006230    1.00   0.00  0.00  0.00  0.89  0.00  0.11  0.00  0.00  0.00
  WS02006230WS02006229    1.00   0.00  0.00  0.00  0.99  0.00  0.00  0.01  0.01  0.00
  WS02006228WS02006109    1.00   0.00  0.00  0.00  1.00  0.00  0.00  0.00  0.00  0.00
  WS02006116WS02004401    1.00   0.02  0.00  0.00  0.98  0.00  0.00  0.00  0.00  0.00
  WS02006115WS02006116    1.00   0.02  0.00  0.00  0.97  0.00  0.00  0.00  0.00  0.00
  WS02006113WS02006111    1.00   0.01  0.00  0.00  0.00  0.99  0.00  0.00  0.09  0.00
  WS02006112WS02006115    1.00   0.01  0.01  0.00  0.98  0.00  0.00  0.00  0.00  0.00
  WS02006111WS02006112    1.00   0.01  0.00  0.00  0.98  0.00  0.00  0.00  0.90  0.00
  WS02006110WS02006113    1.00   0.00  0.01  0.00  0.99  0.00  0.00  0.00  0.00  0.00
  WS02006109WS02006110    1.00   0.00  0.00  0.00  1.00  0.00  0.00  0.00  0.00  0.00
  WS02004411WS02004412    1.00   0.03  0.00  0.00  0.97  0.00  0.00  0.00  0.00  0.00
  WS02004401WS02004402    1.00   0.02  0.00  0.00  0.98  0.00  0.00  0.00  0.00  0.00
  WS02004413WS02003067    1.00   0.03  0.01  0.00  0.00  0.00  0.96  0.00  0.00  0.00
  WS02004412WS02004413    1.00   0.03  0.00  0.00  0.97  0.00  0.00  0.00  0.02  0.00
  WS02004410WS02004411    1.00   0.03  0.00  0.00  0.97  0.00  0.00  0.00  0.02  0.00
  WS02004409WS02004410    1.00   0.03  0.00  0.00  0.97  0.00  0.00  0.00  0.03  0.00
  WS02004407WS02004409    1.00   0.03  0.00  0.00  0.97  0.00  0.00  0.00  0.90  0.00
  WS02004406WS02004407    1.00   0.00  0.03  0.00  0.97  0.00  0.00  0.00  0.00  0.00
  WS02004405WS02004406    1.00   0.00  0.00  0.00  1.00  0.00  0.00  0.00  0.03  0.00
  WS02004404WS02004405    1.00   0.00  0.00  0.00  1.00  0.00  0.00  0.00  0.00  0.00
  WS02004403WS02004404    1.00   0.00  0.02  0.00  0.98  0.00  0.00  0.00  0.00  0.00
  WS02004402WS02004403    1.00   0.02  0.00  0.00  0.98  0.00  0.00  0.00  0.00  0.00
  WS02004139WS02001211    1.00   0.00  0.00  0.00  1.00  0.00  0.00  0.00  0.00  0.00
  WS02004138WS02004139    1.00   0.00  0.00  0.00  1.00  0.00  0.00  0.00  1.00  0.00
  WS02003067WS02003066    1.00   0.04  0.00  0.00  0.96  0.00  0.00  0.00  0.00  0.00
  WS02001213WS02003059    1.00   0.00  0.00  0.00  1.00  0.00  0.00  0.00  0.00  0.00
  WS02001212WS02001213    1.00   0.00  0.00  0.00  0.91  0.00  0.09  0.00  0.00  0.00
  WS02001211WS02001212    1.00   0.00  0.00  0.00  1.00  0.00  0.00  0.00  0.00  0.00
  WS02003072WS02003073    1.00   0.00  0.00  0.00  0.00  0.00  0.00  1.00  0.00  0.00
  WS02003069WS02003072    1.00   0.00  0.00  0.00  1.00  0.00  0.00  0.00  0.18  0.00
  WS02003060WS02003069    1.00   0.00  0.00  0.00  1.00  0.00  0.00  0.00  0.10  0.00
  WS02003059WS02003060    1.00   0.00  0.00  0.00  1.00  0.00  0.00  0.00  0.01  0.00
  HS02004901HS02004770    1.00   0.04  0.00  0.00  0.96  0.00  0.00  0.00  0.00  0.00
  HS02004876HS02004881    1.00   0.00  0.00  0.00  0.91  0.08  0.00  0.00  0.00  0.00
  HS02004870HS02004876    1.00   0.00  0.00  0.00  1.00  0.00  0.00  0.00  0.95  0.00
  HS02004842HS02004848    1.00   0.00  0.04  0.00  0.96  0.00  0.00  0.00  0.58  0.00
  HS02004837HS02004842    1.00   0.00  0.00  0.00  1.00  0.00  0.00  0.00  0.11  0.00
  HS02004830HS02004837    1.00   0.00  0.00  0.00  1.00  0.00  0.00  0.00  0.99  0.00
  HS02004824HS02004830    1.00   0.00  0.00  0.00  1.00  0.00  0.00  0.00  0.00  0.00
  HS02004817HS02004824    1.00   0.00  0.00  0.00  1.00  0.00  0.00  0.00  1.00  0.00
  HS02004770HS02004777    1.00   0.00  0.04  0.00  0.96  0.00  0.00  0.00  0.03  0.00
  HS02004799HS02004480    1.00   0.00  0.01  0.00  0.96  0.00  0.03  0.00  0.00  0.00
  HS02004792HS02004799    1.00   0.00  0.00  0.00  1.00  0.00  0.00  0.00  0.98  0.00
  HS02004788HS02004792    1.00   0.00  0.00  0.00  1.00  0.00  0.00  0.00  0.98  0.00
  HS02004785HS02004788    1.00   0.00  0.00  0.00  1.00  0.00  0.00  0.00  0.00  0.00
  HS02004777HS02004785    1.00   0.00  0.00  0.00  1.00  0.00  0.00  0.00  0.14  0.00
  HS02004480HS02004478    1.00   0.04  0.00  0.00  0.65  0.00  0.00  0.31  0.00  0.00
  HS02004479HS02004480    1.00   0.01  0.00  0.00  0.99  0.00  0.00  0.00  0.12  0.00
  HS02004862HS02004870    1.00   0.00  0.00  0.00  1.00  0.00  0.00  0.00  0.05  0.00
  HS02004848HS02004852    1.00   0.04  0.00  0.00  0.96  0.00  0.00  0.00  0.61  0.00
  HS02004856HS02004862    1.00   0.00  0.05  0.00  0.95  0.00  0.00  0.00  0.80  0.00
  HS02004852HS02004856    1.00   0.04  0.00  0.00  0.96  0.00  0.00  0.00  0.85  0.00
  HS02004802HS02004478    1.00   0.04  0.00  0.00  0.96  0.00  0.00  0.00  0.03  0.00
  HS02004478WS02006287    1.00   0.04  0.00  0.00  0.71  0.25  0.00  0.00  0.66  0.00
  HS02004817HS02004807    1.00   0.00  0.04  0.00  0.96  0.00  0.00  0.00  0.01  0.00
  HS02004807HS02004802    1.00   0.04  0.00  0.00  0.96  0.00  0.00  0.00  0.00  0.00
  YS02001759YS02001757    1.00   0.00  0.00  0.00  1.00  0.00  0.00  0.00  0.16  0.00
  YS02001762YS02001759    1.00   0.00  0.00  0.00  1.00  0.00  0.00  0.00  0.04  0.00
  YS02001765YS02001762    1.00   0.00  0.00  0.00  1.00  0.00  0.00  0.00  0.16  0.00
  YS02001770YS02001767    1.00   0.00  0.00  0.00  1.00  0.00  0.00  0.00  0.00  0.00
  YS02001774YS02001770    1.00   0.00  0.04  0.00  0.96  0.00  0.00  0.00  0.04  0.00
  YS02001779YS02001774    1.00   0.00  0.00  0.00  1.00  0.00  0.00  0.00  0.21  0.00
  YS02001649YS02001757    1.00   0.00  0.00  0.00  1.00  0.00  0.00  0.00  0.17  0.00
  YS02001767YS02001765    1.00   0.00  0.00  0.00  1.00  0.00  0.00  0.00  0.00  0.00
  YS02006561YS02001783    1.00   0.05  0.00  0.00  0.26  0.70  0.00  0.00  0.51  0.00
  YS02001783YS02001784    1.00   0.00  0.05  0.00  0.95  0.00  0.00  0.00  0.01  0.00
  YS02001784YS02001785    1.00   0.00  0.00  0.00  1.00  0.00  0.00  0.00  0.20  0.00
  YS02001788YS02001790    1.00   0.00  0.00  0.00  0.31  0.69  0.00  0.00  0.50  0.00
  YS02001790YS02001791    1.00   0.00  0.00  0.00  0.29  0.71  0.00  0.00  0.50  0.00
  YS02001791YS02001793    1.00   0.00  0.00  0.00  0.33  0.67  0.00  0.00  0.04  0.00
  YS02001910YS02001907    1.00   0.00  0.00  0.00  1.00  0.00  0.00  0.00  0.13  0.00
  YS02001786YS02001788    1.00   0.00  0.00  0.00  0.27  0.73  0.00  0.00  0.00  0.00
  YS02001915YS02001910    1.00   0.00  0.00  0.00  0.99  0.01  0.00  0.00  0.18  0.00
  YS02001918YS02001915    1.00   0.00  0.00  0.00  1.00  0.00  0.00  0.00  0.58  0.00
  YS02001923YS02001920    1.00   0.00  0.00  0.00  1.00  0.00  0.00  0.00  0.86  0.00
  YS02001926YS02001923    1.00   0.00  0.03  0.00  0.12  0.00  0.85  0.00  0.00  0.00
  YS02001929YS02001926    1.00   0.00  0.04  0.00  0.96  0.00  0.00  0.00  0.79  0.00
  YS02001920YS02001918    1.00   0.00  0.00  0.00  1.00  0.00  0.00  0.00  0.00  0.00
  YS02001629YS02163301    1.00   0.04  0.00  0.00  0.96  0.00  0.00  0.00  0.00  0.00
  YS02001619YS02001622    1.00   0.04  0.00  0.00  0.96  0.00  0.00  0.00  0.00  0.00
  YS02001622YS02001625    1.00   0.04  0.00  0.00  0.96  0.00  0.00  0.00  0.07  0.00
  YS02001625YS02001629    1.00   0.04  0.01  0.00  0.93  0.00  0.02  0.00  0.00  0.00
  YS02163301YS02001633    1.00   0.00  0.04  0.00  0.96  0.00  0.00  0.00  0.00  0.00
  YS02163601YS02164001    1.00   0.00  0.03  0.00  0.97  0.00  0.00  0.00  0.00  0.00
  YS02164001YS02001641    1.00   0.00  0.03  0.00  0.97  0.00  0.00  0.00  0.06  0.00
  YS02001641YS02001644    1.00   0.00  0.00  0.00  1.00  0.00  0.00  0.00  0.00  0.00
  YS02001647YS02001649    1.00   0.00  0.05  0.00  0.95  0.00  0.00  0.00  0.01  0.00
  YS02006553YS02006556    1.00   0.00  0.00  0.00  1.00  0.00  0.00  0.00  0.03  0.00
  YS02006556YS02006558    1.00   0.00  0.00  0.00  1.00  0.00  0.00  0.00  0.00  0.00
  YSB6556YSB1171          1.00   0.01  0.02  0.00  0.96  0.00  0.00  0.00  0.00  0.00
  YS02001907YS02006553    1.00   0.00  0.00  0.00  1.00  0.00  0.00  0.00  0.00  0.00
  YS02006558YS02006561    1.00   0.05  0.00  0.00  0.15  0.80  0.00  0.00  0.47  0.00
  YS02001633YS02163601    1.00   0.00  0.00  0.00  1.00  0.00  0.00  0.00  0.16  0.00
  YS02001644YS02001647    1.00   0.00  0.05  0.00  0.95  0.00  0.00  0.00  0.00  0.00
  YS02001745YS02001748    1.00   0.00  0.00  0.00  0.89  0.01  0.00  0.10  0.05  0.00
  YS02001748YS02001751    1.00   0.00  0.00  0.00  0.97  0.03  0.00  0.00  0.15  0.00
  YS02001751YS02001754    1.00   0.00  0.00  0.00  0.95  0.00  0.00  0.05  0.02  0.00
  YS02001754YS02001757    1.00   0.00  0.00  0.00  1.00  0.00  0.00  0.00  0.20  0.00
  YS02001882YS02001884    1.00   0.04  0.00  0.00  0.96  0.00  0.00  0.00  0.00  0.00
  YS02001884YS02001887    1.00   0.03  0.01  0.00  0.97  0.00  0.00  0.00  0.00  0.00
  YS02001890YS02001895    1.00   0.00  0.04  0.00  0.96  0.00  0.00  0.00  0.00  0.00
  YS02001895YS02001898    1.00   0.04  0.00  0.00  0.95  0.00  0.01  0.00  0.00  0.00
  YS02001898YS02001901    1.00   0.04  0.00  0.00  0.96  0.00  0.00  0.00  0.02  0.00
  YS02001901YS02001904    1.00   0.04  0.00  0.00  0.96  0.00  0.00  0.00  0.00  0.00
  YS02001904YS02001907    1.00   0.00  0.04  0.00  0.96  0.00  0.00  0.00  0.00  0.00
  YS02001887YS02001890    1.00   0.00  0.00  0.00  0.99  0.00  0.00  0.00  0.00  0.00
  YS02001652YS02001649    1.00   0.00  0.00  0.00  1.00  0.00  0.00  0.00  0.18  0.00
  YS02001655YS02001652    1.00   0.00  0.00  0.00  0.95  0.00  0.00  0.05  0.02  0.00
  YS02001658YS02001655    1.00   0.00  0.04  0.00  0.93  0.03  0.00  0.00  0.11  0.00
  YS02001661YS02001658    1.00   0.04  0.00  0.00  0.89  0.07  0.00  0.00  0.06  0.00
  YS02001664YS02001661    1.00   0.04  0.00  0.00  0.86  0.10  0.00  0.00  0.22  0.00
  YSB1154YSB6556          1.00   0.04  0.00  0.00  0.96  0.00  0.00  0.00  0.02  0.00
  YSB1174YSB1171          1.00   0.02  0.01  0.00  0.97  0.00  0.00  0.00  0.00  0.00
  YSB1171HS02004479       1.00   0.01  0.00  0.00  0.98  0.00  0.00  0.01  0.11  0.00
  HS02004881HS02006253    1.00   0.02  0.00  0.00  0.85  0.04  0.00  0.09  0.71  0.00
  YS02001793JiankangQianchi    1.00   0.00  0.00  0.00  0.46  0.54  0.00  0.00  0.12  0.00
  YS02001757CaochengTiaoxuchi    1.00   0.00  0.07  0.00  0.93  0.00  0.00  0.00  0.00  0.00
  WSF200WS02003060        1.00   0.00  0.02  0.00  0.88  0.10  0.00  0.00  0.25  0.00
  1                       1.00   0.00  0.00  0.00  0.00  1.00  0.00  0.00  0.36  0.00
  2                       1.00   0.34  0.00  0.00  0.00  0.66  0.00  0.00  0.09  0.00
  3                       1.00   0.06  0.00  0.00  0.00  0.94  0.00  0.00  0.20  0.00
  4                       1.00   1.00  0.00  0.00  0.00  0.00  0.00  0.00  0.00  0.00
  
  
  *************************
  Conduit Surcharge Summary
  *************************
  
  ----------------------------------------------------------------------------
                                                           Hours        Hours 
                         --------- Hours Full --------   Above Full   Capacity
  Conduit                Both Ends  Upstream  Dnstream   Normal Flow   Limited
  ----------------------------------------------------------------------------
  WS02006229WS02006228        3.94      4.26      3.94      5.73         3.94
  WS02006256WS02006235        6.15      6.15      7.33      1.81         0.01
  WS02006253WS02006251        0.01      0.01      0.06      0.01         0.01
  WS02006252WS02006251        2.85      2.85      4.06      3.75         0.01
  WS02006251WS02006249        0.01      0.01      0.01      2.95         0.01
  WS02006249WS02006248        0.01      0.01      0.01      5.35         0.01
  WS02006248WS02006247        0.01      0.01      0.01      0.01         0.01
  WS02006247WS02006245        0.01      0.08      0.01      5.62         0.01
  WS02006245WS02006243        0.03      0.03      0.37      0.03         0.01
  WS02006243WS02006242        0.48      0.48      3.25      0.01         0.01
  WS02006242WS02006240        0.88      0.88      3.76      3.80         0.01
  WS02006240WS02006239        1.41      1.41      1.80      0.03         0.01
  WS02006239WS02006238        3.65      3.66      3.86      0.35         0.37
  WS02006238WS02006235        3.68      3.68      4.29      0.01         0.01
  WS02006235WS02006234        1.04      1.04      3.25      6.19         0.01
  WS02006234WS02006232        1.59      1.59      4.50      0.01         0.01
  WS02006232WS02006231        0.70      0.70      4.50      0.01         0.01
  WS02006231WS02006230        0.56      0.56      0.75      6.18         0.01
  WS02006230WS02006229        5.30      5.58      5.30      6.29         5.30
  WS02006228WS02006109        4.11      4.80      4.11      5.98         4.11
  WS02006112WS02006115        0.01      0.01      1.37      0.01         0.01
  WS02006111WS02006112        0.01      0.01      5.74      0.01         0.01
  WS02006110WS02006113        0.01      0.01      4.50      0.01         0.01
  WS02006109WS02006110        1.14      1.14      4.80      1.15         0.01
  WS02004406WS02004407        0.01      0.01      0.27      0.01         0.01
  WS02004405WS02004406        0.27      0.50      0.27      1.31         0.27
  WS02004404WS02004405        0.50      0.63      0.50      6.00         0.50
  WS02004403WS02004404        0.01      0.01      0.63      0.01         0.01
  WS02003072WS02003073        0.01      0.01      0.01      5.80         0.01
  HS02004480HS02004478        0.01      0.01      0.01      0.25         0.01
  YS02001759YS02001757        5.66      5.66      5.74      0.01         0.01
  YS02001762YS02001759        5.64      5.64      5.66      0.01         0.01
  YS02001765YS02001762        5.61      5.61      5.64      0.01         0.01
  YS02001770YS02001767        5.58      5.58      5.58      0.30         0.89
  YS02001774YS02001770        5.57      5.57      5.63      0.01         0.01
  YS02001779YS02001774        5.40      5.40      5.63      0.01         0.01
  YS02001649YS02001757        5.64      5.64      5.74      0.01         0.01
  YS02001767YS02001765        5.58      5.58      5.61      0.01         0.01
  YS02006561YS02001783        0.61      0.61      1.11      0.01         0.01
  YS02001783YS02001784        1.09      1.11      1.12      1.17         0.91
  YS02001784YS02001785        1.09      1.12      1.09      2.07         1.09
  YS02001788YS02001790        1.08      1.08      1.41      0.01         0.01
  YS02001790YS02001791        1.41      1.41      1.45      0.45         0.45
  YS02001791YS02001793        1.45      1.45      2.00      0.01         0.01
  YS02001910YS02001907        0.96      0.96      1.48      0.01         0.01
  YS02001786YS02001788        1.07      1.09      1.07      1.71         1.07
  YS02001915YS02001910        0.72      0.72      0.96      0.01         0.01
  YS02001918YS02001915        0.48      0.48      0.72      0.01         0.01
  YS02001923YS02001920        0.24      0.24      0.52      0.01         0.01
  YS02001920YS02001918        0.48      0.48      0.52      0.01         0.01
  YS02001629YS02163301        5.57      5.57      5.58      0.01         0.01
  YS02001619YS02001622        5.21      5.21      5.26      0.01         0.01
  YS02001622YS02001625        5.26      5.26      5.54      0.01         0.01
  YS02001625YS02001629        5.23      5.23      5.54      0.01         0.01
  YS02163301YS02001633        5.58      5.58      5.61      0.01         0.01
  YS02163601YS02164001        5.61      5.61      5.64      0.01         0.01
  YS02164001YS02001641        5.61      5.61      5.62      0.01         0.02
  YS02001641YS02001644        5.62      5.62      5.62      1.20         1.48
  YS02001647YS02001649        5.46      5.46      5.64      0.01         0.01
  YS02006553YS02006556        1.19      1.19      1.56      0.01         0.01
  YS02006556YS02006558        1.37      1.37      1.64      0.01         0.01
  YS02001907YS02006553        2.09      2.09      2.30      0.01         0.01
  YS02006558YS02006561        0.81      1.15      0.81      1.94         0.81
  YS02001633YS02163601        5.60      5.60      5.64      0.01         0.01
  YS02001644YS02001647        5.46      5.46      5.62      0.01         0.01
  YS02001745YS02001748        0.01      0.01      4.95      0.01         0.01
  YS02001748YS02001751        5.11      5.11      5.19      0.01         0.01
  YS02001751YS02001754        5.19      5.19      5.41      0.01         0.01
  YS02001754YS02001757        5.44      5.44      5.74      0.01         0.01
  YS02001882YS02001884        0.73      0.73      0.76      0.01         0.01
  YS02001884YS02001887        0.83      0.83      0.87      0.01         0.01
  YS02001890YS02001895        0.71      0.71      0.98      0.01         0.01
  YS02001895YS02001898        0.69      0.70      0.71      0.01         0.01
  YS02001898YS02001901        0.72      0.72      0.82      0.01         0.01
  YS02001901YS02001904        0.79      0.79      0.82      0.01         0.01
  YS02001904YS02001907        0.79      0.79      1.59      0.01         0.01
  YS02001887YS02001890        0.90      0.90      0.94      0.01         0.01
  YS02001652YS02001649        5.49      5.49      5.64      0.01         0.01
  YS02001655YS02001652        5.23      5.23      5.42      0.01         0.01
  YS02001658YS02001655        5.00      5.00      5.23      0.01         0.01
  YS02001661YS02001658        0.21      0.21      5.00      0.01         0.01
  YS02001664YS02001661        0.01      0.01      1.03      0.01         0.01
  YS02001793JiankangQianchi        1.88      1.88      2.93      0.01         0.01
  YS02001757CaochengTiaoxuchi        4.91      4.91      5.74      0.01         0.01
  
  
  ***************
  Pumping Summary
  ***************
  
  ---------------------------------------------------------------------------------------------------------
                                                  Min       Avg       Max     Total     Power    % Time Off
                        Percent   Number of      Flow      Flow      Flow    Volume     Usage    Pump Curve
  Pump                 Utilized   Start-Ups       LPS       LPS       LPS  10^6 ltr     Kw-hr    Low   High
  ---------------------------------------------------------------------------------------------------------
  CC-Pump-1               67.30           5      0.00    165.11    200.00     3.161      4.76    0.0    8.4
  CC-Pump-2               75.81           3      0.00    152.88    200.00     3.281      5.25    0.0   10.3
  JK-Pump-1               95.73           3      0.00    209.35    300.00     4.548     58.19    0.0    0.0
  JK-Pump-2               78.73           4      0.00    165.68    300.00     3.021     41.00    0.0    0.0
  XR-Pump-1               91.49           8      0.00     71.94     95.00     1.938     18.53    0.0    0.0
  XR-Pump-2               93.60           5      0.00     76.70     95.00     1.966     18.65    0.0    0.0
  XR-Pump-3               95.72           6      0.00     75.41     95.00     1.967     16.97    0.0    0.0
  XR-Pump-4               95.73           5      0.00     78.97     95.00     2.080     19.16    0.0    0.0
  

  Analysis begun on:  Fri Jan  7 13:18:50 2022
  Analysis ended on:  Fri Jan  7 13:18:53 2022
  Total elapsed time: 00:00:03