
  EPA STORM WATER MANAGEMENT MODEL - VERSION 5.1 (Build 5.3.0.dev0)
  --------------------------------------------------------------

  WARNING 04: minimum elevation drop used for Conduit WS02004404WS02004405
  WARNING 03: negative offset ignored for Link YS02001904YS02001907
  
  *********************************************************
  NOTE: The summary statistics displayed in this report are
  based on results found at every computational time step,  
  not just on results from each reporting time step.
  *********************************************************
  
  ****************
  Analysis Options
  ****************
  Flow Units ............... LPS
  Process Models:
    Rainfall/Runoff ........ YES
    RDII ................... NO
    Snowmelt ............... NO
    Groundwater ............ NO
    Flow Routing ........... YES
    Ponding Allowed ........ NO
    Water Quality .......... NO
  Infiltration Method ...... HORTON
  Flow Routing Method ...... DYNWAVE
  Surcharge Method ......... EXTRAN
  Starting Date ............ 08/28/2015 08:00:00
  Ending Date .............. 08/28/2015 15:50:00
  Antecedent Dry Days ...... 8.0
  Report Time Step ......... 00:01:00
  Wet Time Step ............ 00:01:00
  Dry Time Step ............ 00:01:00
  Routing Time Step ........ 5.00 sec
  Variable Time Step ....... YES
  Maximum Trials ........... 8
  Number of Threads ........ 4
  Head Tolerance ........... 0.001500 m
  
  
  **************************        Volume         Depth
  Runoff Quantity Continuity     hectare-m            mm
  **************************     ---------       -------
  Total Precipitation ......         5.556        12.164
  Evaporation Loss .........         0.000         0.000
  Infiltration Loss ........         1.427         3.124
  Surface Runoff ...........         3.072         6.726
  Final Storage ............         1.058         2.316
  Continuity Error (%) .....        -0.016
  
  
  **************************        Volume        Volume
  Flow Routing Continuity        hectare-m      10^6 ltr
  **************************     ---------     ---------
  Dry Weather Inflow .......         0.616         6.165
  Wet Weather Inflow .......         3.071        30.708
  Groundwater Inflow .......         0.000         0.000
  RDII Inflow ..............         0.000         0.000
  External Inflow ..........         0.102         1.024
  External Outflow .........         2.538        25.376
  Flooding Loss ............         0.906         9.060
  Evaporation Loss .........         0.000         0.000
  Exfiltration Loss ........         0.000         0.000
  Initial Stored Volume ....         0.076         0.761
  Final Stored Volume ......         0.580         5.800
  Continuity Error (%) .....        -4.082
  
  
  *************************
  Highest Continuity Errors
  *************************
  Node HS02004842 (16.24%)
  Node JK-storage (-15.59%)
  Node YS02001884 (11.62%)
  Node YS02001774 (3.72%)
  Node YSB1171 (3.12%)
  
  
  ***************************
  Time-Step Critical Elements
  ***************************
  Link 3 (61.52%)
  Link WS02006252WS02006251 (28.50%)
  Link WS02006238WS02006235 (3.52%)
  Link WS02006280WS02006229 (1.50%)
  
  
  ********************************
  Highest Flow Instability Indexes
  ********************************
  Link YS02001619YS02001622 (40)
  Link YS02163601YS02164001 (38)
  Link YS02163301YS02001633 (37)
  Link YS02001629YS02163301 (37)
  Link YS02164001YS02001641 (36)
  
  
  *************************
  Routing Time Step Summary
  *************************
  Minimum Time Step           :     0.25 sec
  Average Time Step           :     0.75 sec
  Maximum Time Step           :     5.00 sec
  Percent in Steady State     :    -0.00
  Average Iterations per Step :     4.81
  Percent Not Converging      :    25.38
  
  
  ***************************
  Subcatchment Runoff Summary
  ***************************
  
  ------------------------------------------------------------------------------------------------------------------------------
                            Total      Total      Total      Total     Imperv       Perv      Total       Total     Peak  Runoff
                           Precip      Runon       Evap      Infil     Runoff     Runoff     Runoff      Runoff   Runoff   Coeff
  Subcatchment                 mm         mm         mm         mm         mm         mm         mm    10^6 ltr      LPS
  ------------------------------------------------------------------------------------------------------------------------------
  sub0                      12.16       0.00       0.00       0.85      10.05       0.00      10.05        0.01     1.91   0.826
  sub1                      12.16       0.00       0.00       1.34       9.56       0.00       9.56        0.06    14.15   0.786
  sub2                      12.16       0.00       0.00       4.50       6.75       0.00       6.75        0.06    13.75   0.555
  sub3                      12.16       0.00       0.00       4.50       6.71       0.00       6.71        0.15    32.07   0.552
  sub4                      12.16       0.00       0.00       1.34       9.40       0.00       9.40        0.20    40.20   0.773
  sub5                      12.16       0.00       0.00       0.85       9.99       0.00       9.99        0.11    25.19   0.822
  sub7                      12.16       0.00       0.00       1.09       9.81       0.00       9.81        0.03     7.55   0.807
  sub8                      12.16       0.00       0.00       1.09       9.80       0.00       9.80        0.06    14.17   0.806
  sub9                      12.16       0.00       0.00       1.09       9.80       0.00       9.80        0.05    10.64   0.806
  sub10                     12.16       0.00       0.00       0.97       9.89       0.00       9.89        0.11    24.40   0.813
  sub11                     12.16       0.00       0.00       0.97       9.91       0.00       9.91        0.12    26.15   0.815
  sub12                     12.16       0.00       0.00       1.58       9.39       0.00       9.39        0.08    19.06   0.772
  sub14                     12.16       0.00       0.00       1.09       9.80       0.00       9.80        0.09    21.02   0.805
  sub15                     12.16       0.00       0.00       3.65       7.53       0.00       7.53        0.13    29.11   0.619
  sub16                     12.16       0.00       0.00       4.01       7.23       0.00       7.23        0.08    17.47   0.594
  sub17                     12.16       0.00       0.00       3.89       7.34       0.00       7.34        0.06    14.47   0.603
  sub22                     12.16       0.00       0.00       5.23       6.14       0.00       6.14        0.39    88.27   0.505
  sub23                     12.16       0.00       0.00       4.50       6.79       0.00       6.79        0.32    73.89   0.558
  sub60                     12.16       0.00       0.00       1.46       7.71       0.00       7.71        2.34   297.17   0.634
  sub61                     12.16       0.00       0.00       2.07       7.87       0.00       7.87        2.43   359.80   0.647
  sub62                     12.16       0.00       0.00       0.97       8.55       0.00       8.55        2.63   372.87   0.703
  sub63                     12.16       0.00       0.00       3.53       6.89       0.00       6.89        2.09   327.80   0.567
  sub64                     12.16       0.00       0.00       1.82       7.40       0.00       7.40        2.25   282.66   0.608
  sub65                     12.16       0.00       0.00       1.58       7.52       0.00       7.52        2.31   287.20   0.618
  sub66                     12.16       0.00       0.00       3.53       6.36       0.00       6.36        1.95   257.27   0.523
  sub67                     12.16       0.00       0.00       0.97       9.05       0.00       9.05        2.79   452.90   0.744
  sub68                     12.16       0.00       0.00       1.70       8.28       0.00       8.28        2.55   391.99   0.681
  sub69                     12.16       0.00       0.00       1.82       8.61       0.00       8.61        2.01   355.79   0.708
  sub70                     12.16       8.79       0.00       7.03      11.43       0.10      11.53        2.64   335.00   0.550
  sub71                     12.16       0.00       0.00       0.97       8.31       0.00       8.31        1.96   263.63   0.683
  sub72                     12.16       0.00       0.00       0.85       6.56       0.00       6.56        1.34   129.40   0.540
  sub73                     12.16      11.23       0.00       7.88      12.47       0.08      12.54        2.95   300.52   0.536
  sub74                     12.16       0.00       0.00       9.12       2.57       0.00       2.57        1.03   189.59   0.211
  
  
  ******************
  Node Depth Summary
  ******************
  
  ---------------------------------------------------------------------------------
                                 Average  Maximum  Maximum  Time of Max    Reported
                                   Depth    Depth      HGL   Occurrence   Max Depth
  Node                 Type       Meters   Meters   Meters  days hr:min      Meters
  ---------------------------------------------------------------------------------
  WS02001211           JUNCTION     0.70     0.78     5.62     0  03:20        0.78
  WS02001212           JUNCTION     0.43     0.50     5.56     0  03:21        0.50
  WS02001213           JUNCTION     0.67     0.74     5.51     0  03:21        0.74
  WS02003069           JUNCTION     0.49     0.59     5.18     0  03:07        0.59
  WS02003072           JUNCTION     0.56     0.65     5.02     0  03:08        0.65
  WS02003073           JUNCTION     0.34     0.40     4.47     0  03:08        0.40
  WS02003060           JUNCTION     0.44     0.52     5.46     0  03:07        0.52
  WS02003066           JUNCTION     0.26     0.33     5.88     0  03:06        0.33
  WS02003059           JUNCTION     0.72     0.80     5.48     0  03:07        0.80
  WS02003067           JUNCTION     0.62     0.75     6.07     0  03:06        0.75
  WS02004401           JUNCTION     0.75     0.98     6.98     0  03:04        0.98
  WS02004402           JUNCTION     0.77     1.00     6.96     0  03:04        0.99
  WS02004403           JUNCTION     0.79     1.00     6.93     0  03:04        1.00
  WS02004404           JUNCTION     0.86     1.06     6.91     0  03:04        1.06
  WS02004406           JUNCTION     0.86     1.03     6.86     0  03:04        1.03
  WS02004409           JUNCTION     0.56     0.76     6.53     0  03:05        0.76
  WS02004410           JUNCTION     0.58     0.76     6.48     0  03:05        0.76
  WS02004411           JUNCTION     0.59     0.77     6.45     0  03:05        0.77
  WS02004412           JUNCTION     0.60     0.76     6.40     0  03:05        0.76
  WS02004413           JUNCTION     0.76     0.92     6.39     0  03:06        0.92
  WS02004405           JUNCTION     0.86     1.05     6.90     0  03:04        1.05
  WS02006109           JUNCTION     0.84     1.12     7.73     0  03:01        1.09
  WS02006110           JUNCTION     0.81     1.03     7.61     0  03:01        1.01
  WS02006111           JUNCTION     0.25     0.37     7.08     0  03:02        0.36
  WS02006112           JUNCTION     0.93     1.21     7.09     0  03:02        1.19
  WS02006113           JUNCTION     0.39     0.51     7.41     0  03:02        0.51
  WS02006115           JUNCTION     0.64     0.89     7.03     0  03:03        0.89
  WS02006116           JUNCTION     0.72     0.97     7.01     0  03:04        0.97
  WS02006230           JUNCTION     0.85     1.17     7.92     0  03:01        1.17
  WS02006231           JUNCTION     0.57     0.83     7.95     0  03:01        0.83
  WS02006232           JUNCTION     0.71     0.95     7.99     0  03:01        0.94
  WS02006234           JUNCTION     0.65     0.86     8.02     0  03:01        0.86
  WS02006235           JUNCTION     0.68     0.88     8.05     0  03:01        0.88
  WS02006238           JUNCTION     0.71     0.91     8.05     0  03:01        0.90
  WS02006240           JUNCTION     0.62     0.80     8.09     0  02:30        0.80
  WS02006242           JUNCTION     0.68     0.86     8.13     0  02:30        0.86
  WS02006243           JUNCTION     0.56     0.74     8.16     0  02:30        0.74
  WS02006245           JUNCTION     0.53     0.71     8.19     0  02:30        0.71
  WS02006247           JUNCTION     0.55     0.71     8.21     0  02:30        0.71
  WS02006248           JUNCTION     0.49     0.64     8.23     0  02:30        0.64
  WS02006249           JUNCTION     0.51     0.65     8.25     0  02:30        0.65
  WS02006239           JUNCTION     0.67     0.86     8.07     0  02:30        0.86
  WS02006251           JUNCTION     0.51     0.69     8.36     0  02:30        0.69
  WS02006252           JUNCTION     0.45     0.59     8.83     0  06:09        0.59
  WS02006253           JUNCTION     0.54     0.72     8.36     0  02:30        0.72
  WS02006256           JUNCTION     1.11     2.35     9.28     0  00:00        1.22
  WS02004138           JUNCTION     0.17     0.19     7.44     0  01:42        0.19
  WS02004407           JUNCTION     0.25     0.33     6.64     0  03:04        0.33
  WS02006228           JUNCTION     0.85     1.18     7.83     0  03:02        1.16
  WS02006229           JUNCTION     0.84     1.18     7.88     0  03:02        1.18
  WS02006280           JUNCTION     0.07     0.19     8.46     0  03:02        0.19
  WS02006284           JUNCTION     0.38     0.55     8.95     0  03:02        0.55
  WS02006287           JUNCTION     0.11     0.28     9.24     0  03:01        0.28
  WSF200               JUNCTION     0.25     0.35     5.59     0  03:06        0.35
  HS02004901           JUNCTION     0.13     0.28    10.10     0  03:01        0.28
  HS02004881           JUNCTION     0.01     0.04     9.07     0  03:01        0.04
  HS02004876           JUNCTION     0.05     0.12     9.15     0  03:01        0.12
  HS02004870           JUNCTION     0.02     0.06     9.35     0  03:01        0.06
  HS02004862           JUNCTION     0.02     0.07     9.46     0  03:01        0.07
  HS02004856           JUNCTION     0.08     0.13     9.55     0  03:01        0.13
  HS02004852           JUNCTION     0.01     0.05     9.56     0  03:01        0.05
  HS02004848           JUNCTION     0.01     0.05     9.65     0  03:01        0.05
  HS02004842           JUNCTION     0.34     0.38     9.65     0  03:01        0.38
  HS02004837           JUNCTION     0.03     0.07     9.65     0  03:01        0.07
  HS02004830           JUNCTION     0.04     0.08     9.55     0  03:01        0.08
  HS02004824           JUNCTION     0.03     0.06     9.46     0  03:01        0.06
  HS02004817           JUNCTION     0.45     0.60     9.44     0  03:01        0.60
  HS02004807           JUNCTION     0.13     0.27     9.44     0  03:01        0.27
  HS02004802           JUNCTION     0.17     0.30     9.43     0  03:01        0.30
  HS02004799           JUNCTION     0.13     0.33     9.54     0  03:01        0.33
  HS02004792           JUNCTION     0.04     0.14     9.66     0  03:01        0.14
  HS02004788           JUNCTION     0.03     0.10    10.00     0  03:01        0.10
  HS02004785           JUNCTION     0.05     0.17    10.07     0  03:01        0.17
  HS02004777           JUNCTION     0.16     0.30    10.10     0  03:01        0.30
  HS02004770           JUNCTION     0.13     0.27    10.10     0  03:01        0.27
  HS02004480           JUNCTION     0.09     0.26     9.50     0  03:01        0.26
  HS02004479           JUNCTION     0.13     0.30     9.50     0  03:01        0.30
  HS02004478           JUNCTION     0.07     0.18     9.41     0  03:01        0.18
  YS02001745           JUNCTION     0.66     0.87     8.39     0  03:20        0.87
  YS02001748           JUNCTION     1.05     2.27     9.35     0  02:45        1.31
  YS02001751           JUNCTION     1.23     2.20     9.08     0  02:45        1.52
  YS02001754           JUNCTION     1.49     2.18     8.78     0  02:45        1.80
  YS02001762           JUNCTION     1.69     2.10     8.50     0  02:46        2.02
  YS02001765           JUNCTION     1.64     2.04     8.49     0  02:46        1.96
  YS02001767           JUNCTION     1.61     1.98     8.47     0  02:46        1.92
  YS02001770           JUNCTION     1.60     1.95     8.44     0  02:45        1.90
  YS02001774           JUNCTION     1.67     2.02     8.45     0  02:45        1.96
  YS02001779           JUNCTION     1.42     1.68     8.37     0  02:42        1.68
  YS02001882           JUNCTION     0.55     1.66     8.37     0  02:53        1.60
  YS02001884           JUNCTION     0.64     1.75     8.36     0  02:53        1.70
  YS02001759           JUNCTION     1.73     2.13     8.49     0  02:46        2.06
  YS02001887           JUNCTION     0.72     1.81     8.34     0  02:53        1.78
  YS02001890           JUNCTION     0.75     1.81     8.32     0  02:53        1.80
  YS02001898           JUNCTION     0.52     1.57     8.30     0  02:53        1.55
  YS02001901           JUNCTION     0.64     1.68     8.29     0  02:53        1.66
  YS02001904           JUNCTION     0.62     1.64     8.27     0  02:53        1.63
  YS02001907           JUNCTION     0.95     1.96     8.25     0  02:53        1.96
  YS02001910           JUNCTION     0.74     1.81     8.32     0  02:53        1.77
  YS02001915           JUNCTION     0.53     1.66     8.38     0  02:53        1.58
  YS02001918           JUNCTION     0.27     1.45     8.52     0  02:53        1.27
  YS02001619           JUNCTION     1.21     1.61     8.54     0  02:41        1.53
  YS02001629           JUNCTION     1.56     1.85     8.40     0  02:42        1.85
  YS02001641           JUNCTION     1.66     1.97     8.41     0  02:45        1.93
  YS02001644           JUNCTION     1.66     1.92     8.35     0  02:45        1.92
  YS02001652           JUNCTION     1.50     2.16     8.76     0  02:59        1.92
  YS02001655           JUNCTION     1.26     2.20     9.05     0  03:01        1.96
  YS02001920           JUNCTION     0.37     1.36     8.36     0  02:54        1.34
  YS02001923           JUNCTION     0.21     1.12     8.38     0  02:54        1.11
  YS02001926           JUNCTION     0.27     0.92     8.37     0  02:55        0.92
  YS02001929           JUNCTION     0.15     0.68     8.38     0  02:55        0.65
  YS02001658           JUNCTION     0.99     2.30     9.44     0  02:43        2.09
  YS02001661           JUNCTION     0.77     2.46     9.86     0  02:59        2.18
  YS02001664           JUNCTION     0.33     0.57     8.50     0  03:39        0.56
  YS02001622           JUNCTION     1.23     1.62     8.52     0  02:42        1.53
  YS02001633           JUNCTION     1.65     2.00     8.45     0  02:45        1.94
  YS02001649           JUNCTION     1.70     2.05     8.44     0  02:42        2.05
  YS02001757           JUNCTION     1.82     2.21     8.47     0  02:45        2.16
  YS02001895           JUNCTION     0.51     1.57     8.31     0  02:53        1.54
  YS02001625           JUNCTION     1.51     1.78     8.38     0  02:41        1.78
  YS02163301           JUNCTION     1.59     1.92     8.44     0  02:45        1.87
  YS02163601           JUNCTION     1.70     2.06     8.46     0  02:45        1.98
  YS02164001           JUNCTION     1.64     1.98     8.44     0  02:45        1.91
  YS02001647           JUNCTION     1.49     1.81     8.42     0  02:45        1.79
  YSB1154              JUNCTION     0.27     0.45     9.51     0  03:01        0.45
  YSB6556              JUNCTION     0.16     0.34     9.51     0  03:01        0.34
  YSB1174              JUNCTION     0.22     0.40     9.51     0  03:01        0.40
  YSB1171              JUNCTION     0.42     0.60     9.51     0  03:01        0.60
  YS02006553           JUNCTION     0.95     1.97     8.25     0  02:53        1.96
  YS02006561           JUNCTION     0.32     1.13     7.79     0  02:53        1.07
  YS02006556           JUNCTION     0.92     1.93     8.24     0  02:53        1.91
  YS02006558           JUNCTION     0.96     1.97     8.23     0  02:53        1.95
  YS02001783           JUNCTION     0.53     1.53     7.67     0  02:53        1.46
  YS02001784           JUNCTION     0.55     1.92     7.99     0  02:45        1.41
  YS02001786           JUNCTION     0.48     1.79     7.82     0  02:45        1.25
  YS02001788           JUNCTION     0.41     2.11     8.09     0  02:45        1.12
  YS02001790           JUNCTION     0.50     1.96     7.60     0  02:44        1.28
  YS02001791           JUNCTION     0.44     1.64     7.11     0  02:44        1.27
  YS02001793           JUNCTION     0.56     1.91     6.74     0  02:45        1.80
  WS02004139           JUNCTION     0.65     0.73     5.64     0  03:20        0.73
  WSC                  OUTFALL      0.34     0.40     1.07     0  03:09        0.40
  3                    OUTFALL      0.14     0.23     6.23     0  00:00        0.21
  4                    OUTFALL      0.06     0.15     7.15     0  02:30        0.15
  5                    OUTFALL      0.00     0.00     5.00     0  00:00        0.00
  JK-storage           STORAGE      2.02     5.80     6.60     0  02:46        5.80
  CC-storage           STORAGE      1.03     1.37     8.37     0  03:23        1.37
  XR-storage           STORAGE      6.26     7.72     5.72     0  03:04        7.72
  
  
  *******************
  Node Inflow Summary
  *******************
  
  -------------------------------------------------------------------------------------------------
                                  Maximum  Maximum                  Lateral       Total        Flow
                                  Lateral    Total  Time of Max      Inflow      Inflow     Balance
                                   Inflow   Inflow   Occurrence      Volume      Volume       Error
  Node                 Type           LPS      LPS  days hr:min    10^6 ltr    10^6 ltr     Percent
  -------------------------------------------------------------------------------------------------
  WS02001211           JUNCTION      7.35   388.09     0  07:41       0.207         8.4       0.500
  WS02001212           JUNCTION      0.00   388.56     0  07:41           0        8.36       0.282
  WS02001213           JUNCTION      0.00   389.02     0  07:41           0        8.34       0.341
  WS02003069           JUNCTION      0.32   971.92     0  03:07     0.00902          18       0.207
  WS02003072           JUNCTION      0.00   971.75     0  03:07           0          18       0.243
  WS02003073           JUNCTION      1.82   973.51     0  03:08      0.0514          18       0.281
  WS02003060           JUNCTION     16.53   971.61     0  03:06       0.466          18       0.195
  WS02003066           JUNCTION      0.00   665.99     0  03:06           0        9.29       0.055
  WS02003059           JUNCTION      0.00   389.79     0  07:40           0        8.31       0.509
  WS02003067           JUNCTION      0.00   665.92     0  03:06           0         9.3       0.111
  WS02004401           JUNCTION      0.00   668.66     0  03:03           0        9.56       0.252
  WS02004402           JUNCTION      0.00   669.16     0  03:04           0        9.54       0.235
  WS02004403           JUNCTION      0.00   668.57     0  03:04           0        9.52       0.211
  WS02004404           JUNCTION      0.16   667.40     0  03:04     0.00457         9.5       0.156
  WS02004406           JUNCTION      0.00   667.63     0  03:04           0        9.47       0.379
  WS02004409           JUNCTION      0.00   667.27     0  03:04           0        9.42       0.206
  WS02004410           JUNCTION      0.00   666.81     0  03:05           0         9.4       0.229
  WS02004411           JUNCTION      0.00   666.45     0  03:05           0        9.38       0.232
  WS02004412           JUNCTION      0.00   666.20     0  03:05           0        9.36       0.246
  WS02004413           JUNCTION      0.00   666.04     0  03:05           0        9.34       0.357
  WS02004405           JUNCTION      0.04   667.47     0  03:04     0.00107        9.49       0.235
  WS02006109           JUNCTION      1.23   658.74     0  03:01      0.0347        9.64       0.250
  WS02006110           JUNCTION      0.00   658.77     0  03:01           0        9.62       0.227
  WS02006111           JUNCTION      0.00   693.13     0  03:02           0        9.58       0.054
  WS02006112           JUNCTION     14.47   672.20     0  03:03      0.0629        9.64       0.313
  WS02006113           JUNCTION      0.00   660.17     0  03:01           0        9.59       0.122
  WS02006115           JUNCTION      0.00   673.98     0  03:02           0        9.61       0.250
  WS02006116           JUNCTION      0.00   670.30     0  03:03           0        9.59       0.237
  WS02006230           JUNCTION     10.28   400.50     0  04:52        0.29        7.76       0.203
  WS02006231           JUNCTION      0.00   391.49     0  04:51           0        7.49       0.188
  WS02006232           JUNCTION      0.00   391.58     0  04:51           0         7.5       0.237
  WS02006234           JUNCTION      0.00   393.69     0  05:13           0        7.51       0.140
  WS02006235           JUNCTION      0.00   394.98     0  05:12           0        7.55       0.164
  WS02006238           JUNCTION      0.00   343.74     0  06:30           0        5.62       0.163
  WS02006240           JUNCTION      0.00   337.70     0  06:30           0        5.63       0.286
  WS02006242           JUNCTION      0.00   342.44     0  02:01           0        5.64       0.333
  WS02006243           JUNCTION      0.00   356.31     0  02:01           0        5.64       0.192
  WS02006245           JUNCTION      0.00   365.78     0  02:00           0        5.65       0.235
  WS02006247           JUNCTION      0.00   372.58     0  02:00           0        5.66       0.186
  WS02006248           JUNCTION      0.00   377.68     0  02:00           0        5.67       0.140
  WS02006249           JUNCTION      0.00   458.69     0  02:30           0         6.9       0.207
  WS02006239           JUNCTION      0.00   342.10     0  06:30           0        5.62       0.266
  WS02006251           JUNCTION      0.08   458.93     0  02:30     0.00217        6.94       0.208
  WS02006252           JUNCTION      0.00   400.00     0  01:59           0        6.56       0.008
  WS02006253           JUNCTION      1.91    81.00     0  03:01     0.00814       0.385       2.220
  WS02006256           JUNCTION      0.00   600.00     0  00:00           0        8.21       0.028
  WS02004138           JUNCTION      0.00   380.00     0  01:40           0        8.24       0.070
  WS02004407           JUNCTION      0.00   667.62     0  03:04           0        9.43       0.093
  WS02006228           JUNCTION      0.00   657.63     0  03:01           0        9.62       0.177
  WS02006229           JUNCTION      0.00   656.15     0  03:02           0        9.63       0.126
  WS02006280           JUNCTION      0.00   375.54     0  03:02           0        1.89       0.004
  WS02006284           JUNCTION      0.10   375.54     0  03:02      0.0027        1.89       0.064
  WS02006287           JUNCTION      0.00   375.26     0  03:01           0        1.89       0.038
  WSF200               JUNCTION      0.00   666.03     0  03:06           0        9.29       0.053
  HS02004901           JUNCTION     17.47    17.47     0  03:01      0.0757      0.0759       2.380
  HS02004881           JUNCTION      7.55    79.19     0  03:01      0.0331       0.357       0.068
  HS02004876           JUNCTION     14.15    72.10     0  03:01      0.0636       0.324       0.171
  HS02004870           JUNCTION     14.17    58.27     0  03:01      0.0626       0.261       0.043
  HS02004862           JUNCTION     13.95    44.46     0  03:01      0.0685       0.198       0.089
  HS02004856           JUNCTION     10.64    30.79     0  03:01      0.0471       0.131       1.115
  HS02004852           JUNCTION      0.00    20.44     0  03:01           0       0.084       0.069
  HS02004848           JUNCTION     32.07    32.07     0  03:01       0.151       0.151       0.033
  HS02004842           JUNCTION      0.00    11.42     0  03:01           0      0.0801      19.388
  HS02004837           JUNCTION     30.75    41.91     0  03:01       0.288       0.355       0.230
  HS02004830           JUNCTION      0.15    41.84     0  03:01     0.00423       0.346       0.358
  HS02004824           JUNCTION     40.25    81.79     0  03:01       0.197       0.542       0.100
  HS02004817           JUNCTION      0.60    82.18     0  03:01      0.0169       0.558       3.079
  HS02004807           JUNCTION     26.15   107.24     0  03:01       0.115       0.657       0.656
  HS02004802           JUNCTION      0.00   106.49     0  03:01           0       0.653       0.620
  HS02004799           JUNCTION     21.02   227.51     0  03:01      0.0932        1.06       0.236
  HS02004792           JUNCTION     88.55   207.32     0  03:01       0.396       0.966       0.043
  HS02004788           JUNCTION     30.78   119.37     0  03:01       0.177       0.571       0.068
  HS02004785           JUNCTION      0.15    89.79     0  03:01     0.00423       0.396       0.125
  HS02004777           JUNCTION      0.03    90.24     0  03:01    0.000846       0.397       1.326
  HS02004770           JUNCTION     73.89    90.93     0  03:01       0.324       0.398       0.787
  HS02004480           JUNCTION      0.00   269.27     0  03:01           0        1.25       0.099
  HS02004479           JUNCTION      0.00    42.82     0  03:02           0       0.204       0.361
  HS02004478           JUNCTION      0.00   375.17     0  03:01           0        1.89       0.018
  YS02001745           JUNCTION    297.18   457.37     0  02:44        2.34        2.35       0.349
  YS02001748           JUNCTION      0.04   652.44     0  02:45     0.00127        2.34       0.964
  YS02001751           JUNCTION      0.01   372.39     0  02:40     0.00031        2.31       1.022
  YS02001754           JUNCTION      0.26   308.25     0  03:00     0.00733        2.29       1.088
  YS02001762           JUNCTION      0.00   352.99     0  02:58           0        1.95       1.076
  YS02001765           JUNCTION      0.00   353.32     0  02:58           0        1.95       1.247
  YS02001767           JUNCTION      0.54   353.36     0  02:58      0.0151        1.98       1.839
  YS02001770           JUNCTION    373.02   373.02     0  03:01        2.63        2.65       1.200
  YS02001774           JUNCTION      0.00   279.58     0  03:26           0       0.673       3.865
  YS02001779           JUNCTION      0.01   279.67     0  03:26    0.000141       0.641       2.428
  YS02001882           JUNCTION      0.00    28.96     0  02:47           0      0.0165      15.320
  YS02001884           JUNCTION      0.00    66.81     0  02:47           0      0.0522      13.153
  YS02001759           JUNCTION    359.84   694.54     0  02:58        2.43        4.34       0.531
  YS02001887           JUNCTION    453.35   453.51     0  03:00         2.8        2.83       0.300
  YS02001890           JUNCTION      0.00   453.52     0  03:01           0        2.79       0.330
  YS02001898           JUNCTION      0.00   453.56     0  03:01           0        2.77       0.117
  YS02001901           JUNCTION      0.00   453.63     0  03:01           0        2.77       0.246
  YS02001904           JUNCTION      0.00   453.69     0  03:01           0        2.77       0.225
  YS02001907           JUNCTION      0.00   887.56     0  03:00           0        6.12       0.396
  YS02001910           JUNCTION      0.00   468.73     0  02:55           0        3.37       0.348
  YS02001915           JUNCTION    263.65   468.65     0  02:55        1.96         3.4       0.178
  YS02001918           JUNCTION      0.00   228.25     0  02:55           0        1.45       0.125
  YS02001619           JUNCTION    257.27   257.27     0  03:01        1.95        1.95       0.623
  YS02001629           JUNCTION      0.00   215.88     0  02:51           0        1.64       1.763
  YS02001641           JUNCTION      0.00   455.98     0  02:51           0        3.86       0.544
  YS02001644           JUNCTION    282.70   999.65     0  03:23        2.25        7.54       0.344
  YS02001652           JUNCTION      0.00   379.24     0  03:01           0        2.04       1.127
  YS02001655           JUNCTION      0.15   379.41     0  03:01     0.00434        2.07       1.222
  YS02001920           JUNCTION      2.87   228.09     0  02:55      0.0809        1.43       0.199
  YS02001923           JUNCTION      0.04   207.00     0  02:56     0.00106        1.34       0.045
  YS02001926           JUNCTION      0.05   190.60     0  02:55     0.00147        1.34       0.254
  YS02001929           JUNCTION    129.40   129.40     0  03:01        1.34        1.34       0.040
  YS02001658           JUNCTION      0.00   625.07     0  02:42           0        2.09       0.951
  YS02001661           JUNCTION      0.00   699.02     0  02:58           0        2.81      -0.142
  YS02001664           JUNCTION    327.80   350.29     0  02:55        2.09        2.81       0.149
  YS02001622           JUNCTION      0.00   257.49     0  03:01           0        1.94       1.660
  YS02001633           JUNCTION    287.40   455.89     0  02:51        2.32        3.91       0.821
  YS02001649           JUNCTION      0.00   965.09     0  02:52           0        5.28       0.708
  YS02001757           JUNCTION      0.00  1843.64     0  02:52           0        10.3       0.902
  YS02001895           JUNCTION      0.00   453.56     0  03:01           0        2.78       0.176
  YS02001625           JUNCTION      0.00   257.40     0  03:01           0         1.9       2.065
  YS02163301           JUNCTION      0.00   217.38     0  02:42           0        1.62       1.494
  YS02163601           JUNCTION      0.11   456.00     0  02:51      0.0031        3.88       0.775
  YS02164001           JUNCTION      0.00   456.04     0  02:51           0        3.86       0.510
  YS02001647           JUNCTION      0.00   692.04     0  02:51           0        4.12       0.687
  YSB1154              JUNCTION     25.19    25.19     0  03:01       0.113       0.114       1.286
  YSB6556              JUNCTION      0.00    24.91     0  03:01           0       0.115       1.100
  YSB1174              JUNCTION     19.06    19.06     0  03:01      0.0821      0.0827       1.581
  YSB1171              JUNCTION      0.00    43.19     0  03:01           0       0.203       3.219
  YS02006553           JUNCTION      0.00   667.09     0  03:16           0        5.91       0.258
  YS02006561           JUNCTION      0.00   964.13     0  03:00           0        8.43       0.007
  YS02006556           JUNCTION      0.00   666.94     0  03:17           0        5.91       0.190
  YS02006558           JUNCTION    392.87   964.37     0  03:00        2.57        8.45       0.064
  YS02001783           JUNCTION      0.00   964.10     0  03:00           0        8.42       0.027
  YS02001784           JUNCTION      1.06   965.16     0  03:00      0.0299        8.45       0.045
  YS02001786           JUNCTION      0.06   965.21     0  03:01     0.00159        8.45       0.040
  YS02001788           JUNCTION      0.07   965.25     0  03:01       0.002        8.45       0.024
  YS02001790           JUNCTION      0.15   965.49     0  03:00     0.00437        8.45       0.031
  YS02001791           JUNCTION      0.00   965.52     0  03:00           0        8.45       0.013
  YS02001793           JUNCTION      0.00   965.52     0  03:01           0        8.45       0.004
  WS02004139           JUNCTION      0.32   380.32     0  01:46     0.00905        8.24       0.542
  WSC                  OUTFALL       0.00   973.38     0  03:09           0        17.9       0.000
  3                    OUTFALL       0.00   597.65     0  00:00           0        6.25       0.000
  4                    OUTFALL       0.00   206.28     0  02:30           0        1.22       0.000
  5                    OUTFALL       0.00     0.00     0  00:00           0           0       0.000 ltr
  JK-storage           STORAGE       0.00   965.47     0  03:01           0         8.6     -13.484
  CC-storage           STORAGE       0.00  1843.12     0  02:52           0        9.58      -0.245
  XR-storage           STORAGE     690.11   690.11     0  03:01        9.61        10.2      -1.170
  
  
  **********************
  Node Surcharge Summary
  **********************
  
  Surcharging occurs when water rises above the top of the highest conduit.
  ---------------------------------------------------------------------
                                               Max. Height   Min. Depth
                                   Hours       Above Crown    Below Rim
  Node                 Type      Surcharged         Meters       Meters
  ---------------------------------------------------------------------
  WS02004404           JUNCTION        0.88          0.061        2.719
  WS02004406           JUNCTION        0.40          0.033        2.417
  WS02004405           JUNCTION        0.71          0.049        2.751
  WS02006109           JUNCTION        4.34          0.295        1.525
  WS02006110           JUNCTION        1.15          0.115        1.735
  WS02006112           JUNCTION        1.19          0.210        1.470
  WS02006230           JUNCTION        0.77          0.093        1.477
  WS02006231           JUNCTION        1.08          0.119        1.411
  WS02006232           JUNCTION        4.54          0.250        1.230
  WS02006234           JUNCTION        1.12          0.140        1.100
  WS02006235           JUNCTION        3.32          0.175        1.115
  WS02006238           JUNCTION        3.92          0.188        1.242
  WS02006240           JUNCTION        1.07          0.091        1.299
  WS02006242           JUNCTION        3.35          0.129        0.691
  WS02006243           JUNCTION        0.55          0.033        0.737
  WS02006247           JUNCTION        0.05          0.003        0.757
  WS02006239           JUNCTION        1.54          0.118        1.172
  WS02006252           JUNCTION        4.13          0.193        0.907
  WS02006256           JUNCTION        0.01          1.050        0.000
  WS02006228           JUNCTION        4.15          0.347        1.853
  YS02001748           JUNCTION        4.74          1.190        0.000
  YS02001751           JUNCTION        5.12          1.200        0.000
  YS02001754           JUNCTION        5.27          1.125        0.025
  YS02001762           JUNCTION        5.63          1.100        0.050
  YS02001765           JUNCTION        5.60          1.038        0.062
  YS02001767           JUNCTION        5.46          0.985        0.045
  YS02001770           JUNCTION        5.40          0.920        0.000
  YS02001774           JUNCTION        5.63          1.024        0.026
  YS02001779           JUNCTION        5.27          0.680        0.000
  YS02001882           JUNCTION        0.76          0.655        0.175
  YS02001884           JUNCTION        0.79          0.686        0.184
  YS02001759           JUNCTION        5.66          1.130        0.080
  YS02001887           JUNCTION        0.87          0.755        0.195
  YS02001890           JUNCTION        0.90          0.760        0.000
  YS02001898           JUNCTION        0.72          0.538        0.202
  YS02001901           JUNCTION        0.84          0.678        0.192
  YS02001904           JUNCTION        0.82          0.639        0.211
  YS02001907           JUNCTION        1.50          0.950        0.000
  YS02001910           JUNCTION        0.96          0.811        0.289
  YS02001915           JUNCTION        0.75          0.664        0.336
  YS02001918           JUNCTION        0.50          0.451        0.359
  YS02001619           JUNCTION        5.15          0.610        0.000
  YS02001629           JUNCTION        5.15          0.470        0.000
  YS02001641           JUNCTION        5.61          0.972        0.128
  YS02001644           JUNCTION        5.62          0.920        0.000
  YS02001652           JUNCTION        5.31          1.130        0.000
  YS02001655           JUNCTION        5.16          1.200        0.000
  YS02001920           JUNCTION        0.54          0.356        0.784
  YS02001658           JUNCTION        4.79          1.300        0.000
  YS02001661           JUNCTION        0.22          1.390        0.000
  YS02001622           JUNCTION        5.17          0.620        0.000
  YS02001633           JUNCTION        5.60          0.980        0.080
  YS02001649           JUNCTION        5.64          1.050        0.000
  YS02001757           JUNCTION        5.74          1.210        0.000
  YS02001895           JUNCTION        0.73          0.567        0.183
  YS02001625           JUNCTION        5.36          0.780        0.000
  YS02163301           JUNCTION        5.49          0.920        0.110
  YS02163601           JUNCTION        5.64          1.059        0.021
  YS02164001           JUNCTION        5.60          0.984        0.116
  YS02001647           JUNCTION        5.32          0.813        0.087
  YS02006553           JUNCTION        1.55          0.965        0.225
  YS02006561           JUNCTION        0.63          0.332        0.818
  YS02006556           JUNCTION        1.19          0.893        0.457
  YS02006558           JUNCTION        1.15          0.868        0.532
  YS02001783           JUNCTION        1.14          0.726        0.874
  YS02001784           JUNCTION        1.20          1.121        0.369
  YS02001786           JUNCTION        1.14          0.995        0.435
  YS02001788           JUNCTION        1.13          1.310        0.170
  YS02001790           JUNCTION        1.46          1.157        0.000
  YS02001791           JUNCTION        1.50          0.838        1.082
  YS02001793           JUNCTION        1.60          0.910        1.690
  
  
  *********************
  Node Flooding Summary
  *********************
  
  Flooding refers to all water that overflows a node, whether it ponds or not.
  --------------------------------------------------------------------------
                                                             Total   Maximum
                                 Maximum   Time of Max       Flood    Ponded
                        Hours       Rate    Occurrence      Volume     Depth
  Node                 Flooded       LPS   days hr:min    10^6 ltr    Meters
  --------------------------------------------------------------------------
  WS02006256              0.01    406.11      0  00:00       0.001     0.000
  YS02001748              0.01    290.62      0  02:45       0.001     0.000
  YS02001751              0.01      8.54      0  02:45       0.000     0.000
  YS02001770              0.01      7.63      0  02:45       0.000     0.000
  YS02001779              2.04    279.67      0  03:26       0.620     0.000
  YS02001890              0.01      6.75      0  02:53       0.000     0.000
  YS02001907              0.36    312.76      0  03:00       0.202     0.000
  YS02001619              0.01     23.29      0  02:43       0.000     0.000
  YS02001629              0.01     34.43      0  02:43       0.000     0.000
  YS02001644              3.19    999.59      0  03:23       4.852     0.000
  YS02001652              0.01     22.74      0  03:08       0.000     0.000
  YS02001655              0.01     22.00      0  03:01       0.000     0.000
  YS02001658              0.01    134.87      0  02:43       0.000     0.000
  YS02001661              0.01    181.80      0  03:05       0.002     0.000
  YS02001622              0.01     35.28      0  02:42       0.000     0.000
  YS02001649              0.09     52.15      0  03:08       0.005     0.000
  YS02001757              0.01     21.64      0  02:46       0.000     0.000
  YS02001625              0.83    167.44      0  03:01       0.224     0.000
  YS02001790              0.01     82.79      0  02:44       0.000     0.000
  JK-storage              1.34    537.00      0  03:30       1.730     0.000
  XR-storage              2.76    381.63      0  03:04       1.422     0.000
  
  
  **********************
  Storage Volume Summary
  **********************
  
  --------------------------------------------------------------------------------------------------
                         Average     Avg  Evap Exfil       Maximum     Max    Time of Max    Maximum
                          Volume    Pcnt  Pcnt  Pcnt        Volume    Pcnt     Occurrence    Outflow
  Storage Unit           1000 m3    Full  Loss  Loss       1000 m3    Full    days hr:min        LPS
  --------------------------------------------------------------------------------------------------
  JK-storage               0.101      35     0     0         0.291     100       0  02:46     600.00
  CC-storage               2.873      18     0     0         3.823      24       0  03:23     400.00
  XR-storage               0.751      81     0     0         0.926     100       0  03:04     380.00
  
  
  ***********************
  Outfall Loading Summary
  ***********************
  
  -----------------------------------------------------------
                         Flow       Avg       Max       Total
                         Freq      Flow      Flow      Volume
  Outfall Node           Pcnt       LPS       LPS    10^6 ltr
  -----------------------------------------------------------
  WSC                   99.99    716.39    973.38      17.909
  3                     95.40    306.44    597.65       6.249
  4                     68.96     75.48    206.28       1.218
  5                      0.00      0.00      0.00       0.000
  -----------------------------------------------------------
  System                66.09   1098.30   1594.28      25.376
  
  
  ********************
  Link Flow Summary
  ********************
  
  -----------------------------------------------------------------------------
                                 Maximum  Time of Max   Maximum    Max/    Max/
                                  |Flow|   Occurrence   |Veloc|    Full    Full
  Link                 Type          LPS  days hr:min     m/sec    Flow   Depth
  -----------------------------------------------------------------------------
  WS02003066WSF200     CONDUIT    666.03     0  03:06      2.84    0.11    0.26
  WS02006287WS02006284 CONDUIT    375.44     0  03:02      1.98    0.17    0.29
  WS02006284WS02006280 CONDUIT    375.54     0  03:02      2.22    0.16    0.27
  WS02006280WS02006229 CONDUIT    375.57     0  03:02      3.58    0.08    0.19
  WS02006229WS02006228 CONDUIT    657.63     0  03:01      1.31    2.18    1.00
  WS02006256WS02006235 CONDUIT    177.52     0  00:01      2.73    1.88    1.00
  WS02006253WS02006251 CONDUIT     85.72     0  03:00      0.46    0.26    0.99
  WS02006252WS02006251 CONDUIT    400.61     0  06:30      3.19    1.47    1.00
  WS02006251WS02006249 CONDUIT    458.69     0  02:30      1.25    1.32    0.96
  WS02006249WS02006248 CONDUIT    377.68     0  02:00      1.22    2.07    0.91
  WS02006248WS02006247 CONDUIT    372.58     0  02:00      1.20    0.81    0.96
  WS02006247WS02006245 CONDUIT    365.78     0  02:00      1.16    2.90    1.00
  WS02006245WS02006243 CONDUIT    356.31     0  02:01      1.21    1.05    1.00
  WS02006243WS02006242 CONDUIT    342.44     0  02:01      1.04    0.73    1.00
  WS02006242WS02006240 CONDUIT    337.70     0  06:30      0.92    1.34    1.00
  WS02006240WS02006239 CONDUIT    342.10     0  06:30      0.94    1.08    1.00
  WS02006239WS02006238 CONDUIT    343.74     0  06:30      0.91    1.10    1.00
  WS02006238WS02006235 CONDUIT    343.49     0  06:30      1.32    0.77    1.00
  WS02006235WS02006234 CONDUIT    393.69     0  05:13      1.04    4.15    1.00
  WS02006234WS02006232 CONDUIT    391.58     0  04:51      1.17    0.79    1.00
  WS02006232WS02006231 CONDUIT    391.49     0  04:51      1.07    0.82    1.00
  WS02006231WS02006230 CONDUIT    390.22     0  04:52      1.34    5.92    1.00
  WS02006230WS02006229 CONDUIT    400.21     0  04:22      1.04    8.91    1.00
  WS02006228WS02006109 CONDUIT    657.51     0  03:01      1.31    2.87    1.00
  WS02006116WS02004401 CONDUIT    668.66     0  03:03      0.86    0.92    0.97
  WS02006115WS02006116 CONDUIT    670.30     0  03:03      0.92    0.86    0.90
  WS02006113WS02006111 CONDUIT    693.13     0  03:02      2.59    0.83    0.55
  WS02006112WS02006115 CONDUIT    673.98     0  03:02      0.88    0.40    0.94
  WS02006111WS02006112 CONDUIT    661.93     0  03:03      1.72    0.31    0.73
  WS02006110WS02006113 CONDUIT    660.17     0  03:01      1.50    0.60    0.82
  WS02006109WS02006110 CONDUIT    658.77     0  03:01      1.31    1.27    1.00
  WS02004411WS02004412 CONDUIT    666.20     0  03:05      1.03    0.95    0.77
  WS02004401WS02004402 CONDUIT    669.16     0  03:04      0.85    0.80    0.99
  WS02004413WS02003067 CONDUIT    665.92     0  03:06      1.25    0.29    0.64
  WS02004412WS02004413 CONDUIT    666.04     0  03:05      0.95    0.45    0.84
  WS02004410WS02004411 CONDUIT    666.45     0  03:05      1.03    0.91    0.76
  WS02004409WS02004410 CONDUIT    666.81     0  03:05      1.04    0.86    0.76
  WS02004407WS02004409 CONDUIT    667.27     0  03:04      1.53    0.24    0.54
  WS02004406WS02004407 CONDUIT    667.62     0  03:04      1.20    0.30    0.67
  WS02004405WS02004406 CONDUIT    667.63     0  03:04      0.85    1.32    1.00
  WS02004404WS02004405 CONDUIT    667.43     0  03:04      0.85    6.54    1.00
  WS02004403WS02004404 CONDUIT    667.23     0  03:04      0.85    0.48    1.00
  WS02004402WS02004403 CONDUIT    668.57     0  03:04      0.85    0.96    1.00
  WS02004139WS02001211 CONDUIT    380.74     0  07:41      0.80    0.48    0.59
  WS02004138WS02004139 CONDUIT    380.00     0  01:46      3.34    0.08    0.43
  WS02003067WS02003066 CONDUIT    665.99     0  03:06      1.36    0.21    0.45
  WS02001213WS02003059 CONDUIT    389.79     0  07:40      0.80    0.64    0.76
  WS02001212WS02001213 CONDUIT    389.02     0  07:41      1.32    0.60    0.46
  WS02001211WS02001212 CONDUIT    388.56     0  07:41      0.78    0.30    0.64
  WS02003072WS02003073 CONDUIT    971.69     0  03:08      1.75    2.10    0.49
  WS02003069WS02003072 CONDUIT    971.75     0  03:07      1.64    0.47    0.52
  WS02003060WS02003069 CONDUIT    971.60     0  03:07      1.88    0.38    0.47
  WS02003059WS02003060 CONDUIT    390.83     0  07:40      0.95    0.26    0.66
  HS02004901HS02004770 CONDUIT     17.71     0  03:01      0.07    0.07    0.39
  HS02004876HS02004881 CONDUIT     71.90     0  03:01      0.92    0.76    0.11
  HS02004870HS02004876 CONDUIT     58.03     0  03:01      0.63    0.04    0.13
  HS02004842HS02004848 CONDUIT     11.42     0  03:01      0.05    0.01    0.30
  HS02004837HS02004842 CONDUIT     11.94     0  03:02      0.41    0.01    0.32
  HS02004830HS02004837 CONDUIT     41.69     0  03:01      0.56    0.04    0.11
  HS02004824HS02004830 CONDUIT     41.67     0  03:01      0.58    0.05    0.10
  HS02004817HS02004824 CONDUIT     81.58     0  03:01      0.25    0.04    0.47
  HS02004770HS02004777 CONDUIT     90.21     0  03:01      0.32    0.16    0.41
  HS02004799HS02004480 CONDUIT    226.97     0  03:01      0.78    0.29    0.42
  HS02004792HS02004799 CONDUIT    206.60     0  03:01      0.88    0.13    0.33
  HS02004788HS02004792 CONDUIT    118.94     0  03:01      1.01    0.08    0.17
  HS02004785HS02004788 CONDUIT     89.52     0  03:02      0.66    0.67    0.19
  HS02004777HS02004785 CONDUIT     89.64     0  03:01      0.38    0.11    0.33
  HS02004480HS02004478 CONDUIT    269.12     0  03:01      1.20    1.13    0.32
  HS02004479HS02004480 CONDUIT     44.17     0  03:02      0.23    0.04    0.40
  HS02004862HS02004870 CONDUIT     44.23     0  03:01      0.64    0.05    0.10
  HS02004848HS02004852 CONDUIT     20.44     0  03:01      0.44    0.02    0.07
  HS02004856HS02004862 CONDUIT     30.56     0  03:01      0.47    0.03    0.09
  HS02004852HS02004856 CONDUIT     20.26     0  03:01      0.24    0.02    0.12
  HS02004802HS02004478 CONDUIT    106.59     0  03:02      0.45    0.09    0.35
  HS02004478WS02006287 CONDUIT    375.26     0  03:01      1.68    0.11    0.25
  HS02004817HS02004807 CONDUIT     82.18     0  03:01      0.19    0.05    0.62
  HS02004807HS02004802 CONDUIT    106.49     0  03:01      0.38    0.20    0.40
  YS02001759YS02001757 CONDUIT    694.48     0  02:57      0.88    0.49    1.00
  YS02001762YS02001759 CONDUIT    352.95     0  02:57      0.45    0.41    1.00
  YS02001765YS02001762 CONDUIT    352.99     0  02:58      0.45    0.33    1.00
  YS02001770YS02001767 CONDUIT    352.82     0  02:58      0.45    1.40    1.00
  YS02001774YS02001770 CONDUIT    279.58     0  03:26      0.36    0.18    1.00
  YS02001779YS02001774 CONDUIT    279.67     0  03:26      0.36    0.14    1.00
  YS02001649YS02001757 CONDUIT    964.86     0  02:52      1.23    0.59    1.00
  YS02001767YS02001765 CONDUIT    353.32     0  02:58      0.45    0.44    1.00
  YS02006561YS02001783 CONDUIT    964.10     0  03:00      2.15    0.50    1.00
  YS02001783YS02001784 CONDUIT    964.10     0  03:00      1.92    1.33    1.00
  YS02001784YS02001785 CONDUIT    965.16     0  03:01      1.92    2.25    1.00
  YS02001788YS02001790 CONDUIT    965.33     0  03:00      2.35    0.71    1.00
  YS02001790YS02001791 CONDUIT    965.52     0  03:00      2.85    1.05    1.00
  YS02001791YS02001793 CONDUIT    965.52     0  03:01      5.76    0.41    1.00
  YS02001910YS02001907 CONDUIT    468.77     0  02:55      0.60    0.26    1.00
  YS02001786YS02001788 CONDUIT    965.18     0  03:01      2.25    1.86    1.00
  YS02001915YS02001910 CONDUIT    468.73     0  02:55      0.60    0.23    1.00
  YS02001918YS02001915 CONDUIT    228.65     0  02:55      0.44    0.13    1.00
  YS02001923YS02001920 CONDUIT    225.22     0  02:55      0.68    0.10    1.00
  YS02001926YS02001923 CONDUIT    206.97     0  02:56      0.79    0.30    0.91
  YS02001929YS02001926 CONDUIT    190.55     0  02:55      0.84    0.09    0.80
  YS02001920YS02001918 CONDUIT    228.25     0  02:55      0.67    0.22    1.00
  YS02001629YS02163301 CONDUIT    217.38     0  02:42      0.28    0.27    1.00
  YS02001619YS02001622 CONDUIT    257.49     0  03:01      0.61    0.38    1.00
  YS02001622YS02001625 CONDUIT    257.40     0  03:01      0.33    0.14    1.00
  YS02001625YS02001629 CONDUIT    215.88     0  02:51      0.27    0.10    1.00
  YS02163301YS02001633 CONDUIT    217.32     0  02:42      0.28    0.20    1.00
  YS02163601YS02164001 CONDUIT    456.04     0  02:51      0.58    0.40    1.00
  YS02164001YS02001641 CONDUIT    455.98     0  02:51      0.58    0.62    1.00
  YS02001641YS02001644 CONDUIT    455.66     0  02:51      0.58    1.47    1.00
  YS02001647YS02001649 CONDUIT    691.83     0  02:51      0.88    0.37    1.00
  YS02006553YS02006556 CONDUIT    666.94     0  03:17      0.85    0.57    1.00
  YS02006556YS02006558 CONDUIT    667.24     0  03:16      0.85    0.53    1.00
  YSB6556YSB1171       CONDUIT     24.81     0  03:03      0.09    0.03    0.67
  YS02001907YS02006553 CONDUIT    667.09     0  03:16      0.74    0.78    1.00
  YS02006558YS02006561 CONDUIT    964.13     0  03:00      3.41    2.13    1.00
  YS02001633YS02163601 CONDUIT    455.89     0  02:51      0.58    0.48    1.00
  YS02001644YS02001647 CONDUIT    692.04     0  02:51      0.88    0.41    1.00
  YS02001745YS02001748 CONDUIT    652.40     0  02:45      1.48    0.25    0.94
  YS02001748YS02001751 CONDUIT    372.38     0  02:40      1.05    0.19    1.00
  YS02001751YS02001754 CONDUIT    307.99     0  03:00      0.88    0.15    1.00
  YS02001754YS02001757 CONDUIT    308.22     0  03:00      0.39    0.12    1.00
  YS02001882YS02001884 CONDUIT     28.96     0  02:47      0.09    0.03    1.00
  YS02001884YS02001887 CONDUIT     66.81     0  02:47      0.09    0.09    1.00
  YS02001890YS02001895 CONDUIT    453.56     0  03:01      0.58    0.21    1.00
  YS02001895YS02001898 CONDUIT    453.56     0  03:01      0.58    0.79    1.00
  YS02001898YS02001901 CONDUIT    453.63     0  03:01      0.58    0.29    1.00
  YS02001901YS02001904 CONDUIT    453.69     0  03:01      0.58    0.70    1.00
  YS02001904YS02001907 CONDUIT    453.63     0  03:01      0.58    0.16    1.00
  YS02001887YS02001890 CONDUIT    453.52     0  03:01      0.58    0.78    1.00
  YS02001652YS02001649 CONDUIT    379.60     0  03:01      0.50    0.19    1.00
  YS02001655YS02001652 CONDUIT    379.24     0  03:01      0.93    0.18    1.00
  YS02001658YS02001655 CONDUIT    379.26     0  03:01      1.21    0.16    1.00
  YS02001661YS02001658 CONDUIT    625.07     0  02:42      1.56    0.25    1.00
  YS02001664YS02001661 CONDUIT    699.02     0  02:58      1.63    0.22    0.71
  YSB1154YSB6556       CONDUIT     24.91     0  03:01      0.19    0.04    0.56
  YSB1174YSB1171       CONDUIT     18.78     0  03:01      0.07    0.03    0.68
  YSB1171HS02004479    CONDUIT     42.82     0  03:02      0.54    0.03    0.53
  HS02004881HS02006253 CONDUIT     79.15     0  03:01      1.77    0.02    0.29
  YS02001793JiankangQianchi CONDUIT    965.47     0  03:01     14.37    0.08    1.00
  YS02001757CaochengTiaoxuchi CONDUIT   1843.12     0  02:52      2.56    0.81    1.00
  WSF200WS02003060     CONDUIT    666.12     0  03:06      1.85    0.15    0.37
  1                    CONDUIT    973.38     0  03:09      3.30    0.34    0.40
  2                    CONDUIT    206.28     0  02:30      5.88    0.49    0.50
  3                    CONDUIT    597.65     0  00:00     10.05    0.95    0.86
  4                    CONDUIT      0.00     0  00:00      0.00    0.00    0.00
  CC-Pump-1            PUMP       200.00     0  01:59              1.00
  CC-Pump-2            PUMP       200.00     0  01:59              1.00
  JK-Pump-1            PUMP       300.00     0  00:00              1.00
  JK-Pump-2            PUMP       300.00     0  00:00              1.00
  XR-Pump-1            PUMP        95.00     0  00:00              1.00
  XR-Pump-2            PUMP        95.00     0  00:00              1.00
  XR-Pump-3            PUMP        95.00     0  00:00              1.00
  XR-Pump-4            PUMP        95.00     0  00:20              1.00
  
  
  ***************************
  Flow Classification Summary
  ***************************
  
  -------------------------------------------------------------------------------------
                      Adjusted    ---------- Fraction of Time in Flow Class ---------- 
                       /Actual         Up    Down  Sub   Sup   Up    Down  Norm  Inlet 
  Conduit               Length    Dry  Dry   Dry   Crit  Crit  Crit  Crit  Ltd   Ctrl  
  -------------------------------------------------------------------------------------
  WS02003066WSF200        1.00   0.02  0.04  0.00  0.00  0.94  0.00  0.00  0.60  0.00
  WS02006287WS02006284    1.00   0.03  0.01  0.00  0.58  0.38  0.00  0.00  0.65  0.00
  WS02006284WS02006280    1.00   0.03  0.00  0.00  0.00  0.00  0.00  0.97  0.00  0.00
  WS02006280WS02006229    1.00   0.03  0.00  0.00  0.00  0.00  0.00  0.97  0.00  0.00
  WS02006229WS02006228    1.00   0.00  0.00  0.00  0.99  0.00  0.00  0.01  0.00  0.00
  WS02006256WS02006235    1.00   0.00  0.00  0.00  1.00  0.00  0.00  0.00  0.00  0.00
  WS02006253WS02006251    1.00   0.02  0.01  0.00  0.97  0.00  0.00  0.00  0.00  0.00
  WS02006252WS02006251    1.00   0.06  0.00  0.00  0.00  0.00  0.94  0.00  0.00  0.00
  WS02006251WS02006249    1.00   0.00  0.00  0.00  1.00  0.00  0.00  0.00  0.22  0.00
  WS02006249WS02006248    1.00   0.00  0.01  0.00  0.94  0.00  0.05  0.00  0.00  0.00
  WS02006248WS02006247    1.00   0.02  0.00  0.00  0.98  0.00  0.00  0.01  0.11  0.00
  WS02006247WS02006245    1.00   0.02  0.00  0.00  0.97  0.00  0.00  0.01  0.00  0.00
  WS02006245WS02006243    1.00   0.01  0.00  0.00  0.95  0.00  0.00  0.03  0.01  0.00
  WS02006243WS02006242    1.00   0.01  0.00  0.00  0.99  0.00  0.00  0.00  0.21  0.00
  WS02006242WS02006240    1.00   0.00  0.00  0.00  1.00  0.00  0.00  0.00  0.00  0.00
  WS02006240WS02006239    1.00   0.00  0.00  0.00  0.97  0.00  0.00  0.03  0.02  0.00
  WS02006239WS02006238    1.00   0.00  0.00  0.00  1.00  0.00  0.00  0.00  0.00  0.00
  WS02006238WS02006235    1.00   0.00  0.00  0.00  1.00  0.00  0.00  0.00  0.00  0.00
  WS02006235WS02006234    1.00   0.00  0.00  0.00  0.96  0.00  0.04  0.00  0.00  0.00
  WS02006234WS02006232    1.00   0.00  0.00  0.00  1.00  0.00  0.00  0.00  0.00  0.00
  WS02006232WS02006231    1.00   0.00  0.00  0.00  0.99  0.00  0.01  0.00  0.00  0.00
  WS02006231WS02006230    1.00   0.00  0.00  0.00  0.91  0.00  0.09  0.00  0.00  0.00
  WS02006230WS02006229    1.00   0.00  0.00  0.00  0.99  0.00  0.00  0.01  0.01  0.00
  WS02006228WS02006109    1.00   0.00  0.00  0.00  1.00  0.00  0.00  0.00  0.00  0.00
  WS02006116WS02004401    1.00   0.02  0.00  0.00  0.98  0.00  0.00  0.00  0.00  0.00
  WS02006115WS02006116    1.00   0.02  0.00  0.00  0.97  0.00  0.00  0.01  0.01  0.00
  WS02006113WS02006111    1.00   0.02  0.00  0.00  0.00  0.98  0.00  0.00  0.08  0.00
  WS02006112WS02006115    1.00   0.02  0.00  0.00  0.98  0.00  0.00  0.00  0.00  0.00
  WS02006111WS02006112    1.00   0.02  0.00  0.00  0.98  0.00  0.00  0.00  0.90  0.00
  WS02006110WS02006113    1.00   0.01  0.00  0.00  0.98  0.00  0.00  0.00  0.00  0.00
  WS02006109WS02006110    1.00   0.00  0.01  0.00  0.98  0.00  0.00  0.00  0.00  0.00
  WS02004411WS02004412    1.00   0.04  0.00  0.00  0.96  0.00  0.00  0.00  0.00  0.00
  WS02004401WS02004402    1.00   0.02  0.00  0.00  0.98  0.00  0.00  0.00  0.00  0.00
  WS02004413WS02003067    1.00   0.04  0.01  0.00  0.00  0.00  0.95  0.00  0.00  0.00
  WS02004412WS02004413    1.00   0.04  0.00  0.00  0.96  0.00  0.00  0.00  0.01  0.00
  WS02004410WS02004411    1.00   0.04  0.00  0.00  0.96  0.00  0.00  0.00  0.00  0.00
  WS02004409WS02004410    1.00   0.04  0.00  0.00  0.96  0.00  0.00  0.00  0.00  0.00
  WS02004407WS02004409    1.00   0.04  0.00  0.00  0.96  0.00  0.00  0.00  0.80  0.00
  WS02004406WS02004407    1.00   0.00  0.04  0.00  0.96  0.00  0.00  0.00  0.00  0.00
  WS02004405WS02004406    1.00   0.00  0.00  0.00  1.00  0.00  0.00  0.00  0.02  0.00
  WS02004404WS02004405    1.00   0.00  0.00  0.00  1.00  0.00  0.00  0.00  0.00  0.00
  WS02004403WS02004404    1.00   0.00  0.02  0.00  0.98  0.00  0.00  0.00  0.02  0.00
  WS02004402WS02004403    1.00   0.02  0.00  0.00  0.98  0.00  0.00  0.00  0.00  0.00
  WS02004139WS02001211    1.00   0.00  0.00  0.00  0.99  0.00  0.00  0.00  0.00  0.00
  WS02004138WS02004139    1.00   0.00  0.00  0.00  0.99  0.01  0.00  0.00  1.00  0.00
  WS02003067WS02003066    1.00   0.05  0.00  0.00  0.94  0.00  0.00  0.00  0.00  0.00
  WS02001213WS02003059    1.00   0.00  0.00  0.00  0.99  0.00  0.00  0.00  0.00  0.00
  WS02001212WS02001213    1.00   0.00  0.00  0.00  0.91  0.00  0.08  0.00  0.00  0.00
  WS02001211WS02001212    1.00   0.00  0.00  0.00  1.00  0.00  0.00  0.00  0.00  0.00
  WS02003072WS02003073    1.00   0.00  0.00  0.00  0.00  0.00  0.00  1.00  0.00  0.00
  WS02003069WS02003072    1.00   0.00  0.00  0.00  0.99  0.01  0.00  0.00  0.15  0.00
  WS02003060WS02003069    1.00   0.00  0.00  0.00  0.99  0.01  0.00  0.00  0.05  0.00
  WS02003059WS02003060    1.00   0.00  0.00  0.00  0.99  0.01  0.00  0.00  0.01  0.00
  HS02004901HS02004770    1.00   0.03  0.00  0.00  0.97  0.00  0.00  0.00  0.00  0.00
  HS02004876HS02004881    1.00   0.02  0.00  0.00  0.90  0.09  0.00  0.00  0.00  0.00
  HS02004870HS02004876    1.00   0.01  0.00  0.00  0.99  0.00  0.00  0.00  0.95  0.00
  HS02004842HS02004848    1.00   0.00  0.03  0.00  0.97  0.00  0.00  0.00  0.58  0.00
  HS02004837HS02004842    1.00   0.00  0.00  0.00  0.99  0.01  0.00  0.00  0.11  0.00
  HS02004830HS02004837    1.00   0.00  0.00  0.00  1.00  0.00  0.00  0.00  0.99  0.00
  HS02004824HS02004830    1.00   0.00  0.00  0.00  1.00  0.00  0.00  0.00  0.00  0.00
  HS02004817HS02004824    1.00   0.00  0.00  0.00  1.00  0.00  0.00  0.00  1.00  0.00
  HS02004770HS02004777    1.00   0.00  0.03  0.00  0.97  0.00  0.00  0.00  0.03  0.00
  HS02004799HS02004480    1.00   0.00  0.01  0.00  0.96  0.00  0.02  0.00  0.00  0.00
  HS02004792HS02004799    1.00   0.00  0.00  0.00  0.99  0.01  0.00  0.00  0.98  0.00
  HS02004788HS02004792    1.00   0.00  0.00  0.00  0.99  0.01  0.00  0.00  0.98  0.00
  HS02004785HS02004788    1.00   0.00  0.00  0.00  1.00  0.00  0.00  0.00  0.00  0.00
  HS02004777HS02004785    1.00   0.00  0.00  0.00  1.00  0.00  0.00  0.00  0.14  0.00
  HS02004480HS02004478    1.00   0.03  0.00  0.00  0.65  0.00  0.00  0.32  0.00  0.00
  HS02004479HS02004480    1.00   0.02  0.00  0.00  0.98  0.00  0.00  0.00  0.13  0.00
  HS02004862HS02004870    1.00   0.00  0.00  0.00  1.00  0.00  0.00  0.00  0.05  0.00
  HS02004848HS02004852    1.00   0.03  0.00  0.00  0.97  0.00  0.00  0.00  0.61  0.00
  HS02004856HS02004862    1.00   0.00  0.04  0.00  0.96  0.00  0.00  0.00  0.80  0.00
  HS02004852HS02004856    1.00   0.03  0.00  0.00  0.97  0.00  0.00  0.00  0.85  0.00
  HS02004802HS02004478    1.00   0.03  0.00  0.00  0.97  0.00  0.00  0.00  0.03  0.00
  HS02004478WS02006287    1.00   0.04  0.00  0.00  0.72  0.24  0.00  0.00  0.66  0.00
  HS02004817HS02004807    1.00   0.00  0.03  0.00  0.97  0.00  0.00  0.00  0.01  0.00
  HS02004807HS02004802    1.00   0.03  0.00  0.00  0.96  0.00  0.00  0.00  0.00  0.00
  YS02001759YS02001757    1.00   0.00  0.00  0.00  1.00  0.00  0.00  0.00  0.16  0.00
  YS02001762YS02001759    1.00   0.00  0.00  0.00  1.00  0.00  0.00  0.00  0.03  0.00
  YS02001765YS02001762    1.00   0.00  0.00  0.00  1.00  0.00  0.00  0.00  0.16  0.00
  YS02001770YS02001767    1.00   0.00  0.00  0.00  1.00  0.00  0.00  0.00  0.00  0.00
  YS02001774YS02001770    1.00   0.00  0.03  0.00  0.97  0.00  0.00  0.00  0.04  0.00
  YS02001779YS02001774    1.00   0.00  0.00  0.00  1.00  0.00  0.00  0.00  0.21  0.00
  YS02001649YS02001757    1.00   0.00  0.00  0.00  1.00  0.00  0.00  0.00  0.17  0.00
  YS02001767YS02001765    1.00   0.00  0.00  0.00  1.00  0.00  0.00  0.00  0.00  0.00
  YS02006561YS02001783    1.00   0.04  0.00  0.00  0.28  0.67  0.00  0.00  0.51  0.00
  YS02001783YS02001784    1.00   0.00  0.05  0.00  0.95  0.00  0.00  0.00  0.01  0.00
  YS02001784YS02001785    1.00   0.00  0.00  0.00  1.00  0.00  0.00  0.00  0.20  0.00
  YS02001788YS02001790    1.00   0.00  0.00  0.00  0.31  0.69  0.00  0.00  0.48  0.00
  YS02001790YS02001791    1.00   0.00  0.00  0.00  0.28  0.72  0.00  0.00  0.54  0.00
  YS02001791YS02001793    1.00   0.00  0.00  0.00  0.29  0.71  0.00  0.00  0.01  0.00
  YS02001910YS02001907    1.00   0.00  0.00  0.00  0.98  0.00  0.00  0.02  0.13  0.00
  YS02001786YS02001788    1.00   0.00  0.00  0.00  0.30  0.70  0.00  0.00  0.00  0.00
  YS02001915YS02001910    1.00   0.00  0.00  0.00  0.99  0.01  0.00  0.00  0.18  0.00
  YS02001918YS02001915    1.00   0.00  0.01  0.00  0.99  0.00  0.00  0.00  0.58  0.00
  YS02001923YS02001920    1.00   0.00  0.00  0.00  1.00  0.00  0.00  0.00  0.86  0.00
  YS02001926YS02001923    1.00   0.00  0.02  0.00  0.14  0.00  0.83  0.00  0.00  0.00
  YS02001929YS02001926    1.00   0.00  0.03  0.00  0.97  0.00  0.00  0.00  0.79  0.00
  YS02001920YS02001918    1.00   0.00  0.01  0.00  0.99  0.00  0.00  0.00  0.00  0.00
  YS02001629YS02163301    1.00   0.04  0.00  0.00  0.96  0.00  0.00  0.00  0.00  0.00
  YS02001619YS02001622    1.00   0.03  0.00  0.00  0.97  0.00  0.00  0.00  0.00  0.00
  YS02001622YS02001625    1.00   0.03  0.00  0.00  0.97  0.00  0.00  0.00  0.07  0.00
  YS02001625YS02001629    1.00   0.03  0.01  0.00  0.94  0.00  0.01  0.00  0.00  0.00
  YS02163301YS02001633    1.00   0.00  0.04  0.00  0.96  0.00  0.00  0.00  0.00  0.00
  YS02163601YS02164001    1.00   0.00  0.03  0.00  0.97  0.00  0.00  0.00  0.00  0.00
  YS02164001YS02001641    1.00   0.01  0.01  0.00  0.97  0.00  0.00  0.00  0.06  0.00
  YS02001641YS02001644    1.00   0.00  0.01  0.00  0.99  0.00  0.00  0.00  0.00  0.00
  YS02001647YS02001649    1.00   0.00  0.04  0.00  0.96  0.00  0.00  0.00  0.01  0.00
  YS02006553YS02006556    1.00   0.01  0.00  0.00  0.99  0.00  0.00  0.00  0.03  0.00
  YS02006556YS02006558    1.00   0.00  0.00  0.00  1.00  0.00  0.00  0.00  0.00  0.00
  YSB6556YSB1171          1.00   0.02  0.01  0.00  0.97  0.00  0.00  0.00  0.00  0.00
  YS02001907YS02006553    1.00   0.00  0.01  0.00  0.98  0.00  0.00  0.00  0.00  0.00
  YS02006558YS02006561    1.00   0.04  0.00  0.00  0.17  0.78  0.00  0.00  0.47  0.00
  YS02001633YS02163601    1.00   0.00  0.01  0.00  0.99  0.00  0.00  0.00  0.16  0.00
  YS02001644YS02001647    1.00   0.00  0.04  0.00  0.96  0.00  0.00  0.00  0.00  0.00
  YS02001745YS02001748    1.00   0.00  0.00  0.00  0.90  0.01  0.00  0.09  0.06  0.00
  YS02001748YS02001751    1.00   0.00  0.00  0.00  0.98  0.02  0.00  0.00  0.15  0.00
  YS02001751YS02001754    1.00   0.00  0.00  0.00  0.95  0.00  0.00  0.05  0.02  0.00
  YS02001754YS02001757    1.00   0.00  0.00  0.00  0.99  0.01  0.00  0.00  0.20  0.00
  YS02001882YS02001884    1.00   0.04  0.00  0.00  0.96  0.00  0.00  0.00  0.00  0.00
  YS02001884YS02001887    1.00   0.02  0.01  0.00  0.97  0.00  0.00  0.00  0.00  0.00
  YS02001890YS02001895    1.00   0.00  0.04  0.00  0.96  0.00  0.00  0.00  0.00  0.00
  YS02001895YS02001898    1.00   0.04  0.00  0.00  0.95  0.00  0.01  0.00  0.00  0.00
  YS02001898YS02001901    1.00   0.04  0.00  0.00  0.96  0.00  0.00  0.00  0.02  0.00
  YS02001901YS02001904    1.00   0.04  0.00  0.00  0.96  0.00  0.00  0.00  0.00  0.00
  YS02001904YS02001907    1.00   0.00  0.04  0.00  0.96  0.00  0.00  0.00  0.00  0.00
  YS02001887YS02001890    1.00   0.00  0.00  0.00  0.98  0.00  0.01  0.00  0.00  0.00
  YS02001652YS02001649    1.00   0.00  0.00  0.00  1.00  0.00  0.00  0.00  0.18  0.00
  YS02001655YS02001652    1.00   0.00  0.00  0.00  0.95  0.00  0.00  0.05  0.02  0.00
  YS02001658YS02001655    1.00   0.00  0.04  0.00  0.94  0.02  0.00  0.00  0.11  0.00
  YS02001661YS02001658    1.00   0.04  0.00  0.00  0.90  0.07  0.00  0.00  0.08  0.00
  YS02001664YS02001661    1.00   0.03  0.00  0.00  0.85  0.12  0.00  0.00  0.23  0.00
  YSB1154YSB6556          1.00   0.03  0.00  0.00  0.97  0.00  0.00  0.00  0.02  0.00
  YSB1174YSB1171          1.00   0.02  0.01  0.00  0.97  0.00  0.00  0.00  0.00  0.00
  YSB1171HS02004479       1.00   0.02  0.00  0.00  0.98  0.00  0.00  0.00  0.11  0.00
  HS02004881HS02006253    1.00   0.02  0.00  0.00  0.88  0.02  0.00  0.08  0.72  0.00
  YS02001793JiankangQianchi    1.00   0.00  0.00  0.00  0.45  0.54  0.00  0.00  0.15  0.00
  YS02001757CaochengTiaoxuchi    1.00   0.00  0.06  0.00  0.88  0.06  0.00  0.00  0.00  0.00
  WSF200WS02003060        1.00   0.00  0.02  0.00  0.81  0.17  0.00  0.00  0.16  0.00
  1                       1.00   0.00  0.00  0.00  0.00  1.00  0.00  0.00  0.36  0.00
  2                       1.00   0.31  0.00  0.00  0.00  0.69  0.00  0.00  0.11  0.00
  3                       1.00   0.05  0.00  0.00  0.00  0.95  0.00  0.00  0.01  0.00
  4                       1.00   1.00  0.00  0.00  0.00  0.00  0.00  0.00  0.00  0.00
  
  
  *************************
  Conduit Surcharge Summary
  *************************
  
  ----------------------------------------------------------------------------
                                                           Hours        Hours 
                         --------- Hours Full --------   Above Full   Capacity
  Conduit                Both Ends  Upstream  Dnstream   Normal Flow   Limited
  ----------------------------------------------------------------------------
  WS02006229WS02006228        4.15      4.48      4.15      5.80         4.15
  WS02006256WS02006235        6.01      6.01      7.83      2.00         0.01
  WS02006253WS02006251        0.01      0.01      0.40      0.01         0.01
  WS02006252WS02006251        2.88      2.88      4.13      3.81         0.01
  WS02006251WS02006249        0.01      0.01      0.01      2.93         0.01
  WS02006249WS02006248        0.01      0.01      0.01      5.49         0.01
  WS02006248WS02006247        0.01      0.01      0.05      0.01         0.01
  WS02006247WS02006245        0.01      0.34      0.01      5.68         0.01
  WS02006245WS02006243        0.12      0.12      0.55      0.05         0.01
  WS02006243WS02006242        0.69      0.69      3.35      0.01         0.01
  WS02006242WS02006240        1.07      1.07      3.90      4.02         0.01
  WS02006240WS02006239        1.16      1.16      1.54      0.05         0.01
  WS02006239WS02006238        3.73      3.74      3.92      0.23         0.24
  WS02006238WS02006235        3.72      3.72      4.35      0.01         0.01
  WS02006235WS02006234        1.12      1.12      3.32      6.03         0.01
  WS02006234WS02006232        1.28      1.28      4.53      0.01         0.01
  WS02006232WS02006231        1.08      1.08      4.53      0.01         0.01
  WS02006231WS02006230        0.77      0.77      1.09      6.00         0.01
  WS02006230WS02006229        5.39      5.72      5.39      6.12         5.39
  WS02006228WS02006109        4.33      4.95      4.33      5.95         4.33
  WS02006112WS02006115        0.01      0.01      1.19      0.01         0.01
  WS02006111WS02006112        0.01      0.01      5.83      0.01         0.01
  WS02006110WS02006113        0.01      0.01      4.70      0.01         0.01
  WS02006109WS02006110        1.15      1.15      4.95      1.15         0.01
  WS02004406WS02004407        0.01      0.01      0.39      0.01         0.01
  WS02004405WS02004406        0.39      0.71      0.39      1.16         0.39
  WS02004404WS02004405        0.71      0.88      0.71      6.00         0.71
  WS02004403WS02004404        0.01      0.01      0.88      0.01         0.01
  WS02003072WS02003073        0.01      0.01      0.01      5.76         0.01
  HS02004480HS02004478        0.01      0.01      0.01      0.25         0.01
  YS02001759YS02001757        5.66      5.66      5.74      0.01         0.01
  YS02001762YS02001759        5.63      5.63      5.66      0.01         0.01
  YS02001765YS02001762        5.60      5.60      5.63      0.01         0.01
  YS02001770YS02001767        5.45      5.47      5.46      0.37         0.91
  YS02001774YS02001770        5.40      5.40      5.63      0.01         0.01
  YS02001779YS02001774        5.27      5.27      5.63      0.01         0.01
  YS02001649YS02001757        5.64      5.64      5.74      0.01         0.01
  YS02001767YS02001765        5.46      5.46      5.60      0.01         0.01
  YS02006561YS02001783        0.63      0.63      1.14      0.01         0.01
  YS02001783YS02001784        1.13      1.14      1.20      1.16         0.94
  YS02001784YS02001785        1.14      1.20      1.14      2.07         1.14
  YS02001788YS02001790        1.13      1.13      1.46      0.01         0.01
  YS02001790YS02001791        1.46      1.46      1.50      0.47         0.47
  YS02001791YS02001793        1.50      1.50      1.64      0.01         0.01
  YS02001910YS02001907        0.96      0.96      1.50      0.01         0.01
  YS02001786YS02001788        1.13      1.14      1.13      1.71         1.13
  YS02001915YS02001910        0.75      0.75      0.96      0.01         0.01
  YS02001918YS02001915        0.50      0.50      0.75      0.01         0.01
  YS02001923YS02001920        0.28      0.28      0.54      0.01         0.01
  YS02001920YS02001918        0.50      0.50      0.54      0.01         0.01
  YS02001629YS02163301        5.40      5.40      5.49      0.01         0.01
  YS02001619YS02001622        5.15      5.15      5.17      0.01         0.01
  YS02001622YS02001625        5.17      5.17      5.36      0.01         0.01
  YS02001625YS02001629        5.15      5.15      5.36      0.01         0.01
  YS02163301YS02001633        5.49      5.49      5.61      0.01         0.01
  YS02163601YS02164001        5.60      5.60      5.64      0.01         0.01
  YS02164001YS02001641        5.60      5.60      5.61      0.01         0.02
  YS02001641YS02001644        5.61      5.61      5.62      1.20         1.52
  YS02001647YS02001649        5.32      5.32      5.64      0.01         0.01
  YS02006553YS02006556        1.19      1.19      1.55      0.01         0.01
  YS02006556YS02006558        1.38      1.38      1.64      0.01         0.01
  YS02001907YS02006553        2.09      2.09      2.30      0.01         0.01
  YS02006558YS02006561        0.85      1.15      0.85      1.94         0.85
  YS02001633YS02163601        5.60      5.60      5.64      0.01         0.01
  YS02001644YS02001647        5.32      5.32      5.62      0.01         0.01
  YS02001745YS02001748        0.01      0.01      4.73      0.01         0.01
  YS02001748YS02001751        5.06      5.06      5.12      0.01         0.01
  YS02001751YS02001754        5.12      5.12      5.27      0.01         0.01
  YS02001754YS02001757        5.32      5.32      5.74      0.01         0.01
  YS02001882YS02001884        0.76      0.76      0.79      0.01         0.01
  YS02001884YS02001887        0.85      0.85      0.87      0.01         0.01
  YS02001890YS02001895        0.73      0.73      0.98      0.01         0.01
  YS02001895YS02001898        0.72      0.72      0.73      0.01         0.01
  YS02001898YS02001901        0.74      0.74      0.84      0.01         0.01
  YS02001901YS02001904        0.82      0.82      0.84      0.01         0.01
  YS02001904YS02001907        0.82      0.82      1.58      0.01         0.01
  YS02001887YS02001890        0.90      0.90      0.94      0.01         0.01
  YS02001652YS02001649        5.34      5.34      5.64      0.01         0.01
  YS02001655YS02001652        5.16      5.16      5.31      0.01         0.01
  YS02001658YS02001655        4.78      4.78      5.16      0.01         0.01
  YS02001661YS02001658        0.21      0.21      4.78      0.01         0.01
  YS02001664YS02001661        0.01      0.01      0.99      0.01         0.01
  YS02001793JiankangQianchi        1.60      1.60      2.46      0.01         0.01
  YS02001757CaochengTiaoxuchi        4.84      4.84      5.74      0.01         0.01
  3                           0.01      0.01      0.01      0.01         0.01
  
  
  ***************
  Pumping Summary
  ***************
  
  ---------------------------------------------------------------------------------------------------------
                                                  Min       Avg       Max     Total     Power    % Time Off
                        Percent   Number of      Flow      Flow      Flow    Volume     Usage    Pump Curve
  Pump                 Utilized   Start-Ups       LPS       LPS       LPS  10^6 ltr     Kw-hr    Low   High
  ---------------------------------------------------------------------------------------------------------
  CC-Pump-1               71.56           4      0.00    159.93    200.00     3.281      6.23    0.0   12.7
  CC-Pump-2               71.56           5      0.00    159.54    200.00     3.281      5.82    0.0   12.7
  JK-Pump-1               91.49           5      0.00    190.41    300.00     3.742     48.67    0.0    0.0
  JK-Pump-2              100.00           3      0.00    202.66    300.00     4.466     60.04    0.0    0.0
  XR-Pump-1               95.73           8      0.00     76.13     95.00     2.109     23.65    0.0    0.0
  XR-Pump-2               91.48           6      0.00     80.17     95.00     2.109     22.41    0.0    0.0
  XR-Pump-3               91.47          10      0.00     66.33     95.00     1.767     18.80    0.0    0.0
  XR-Pump-4               93.60           4      0.00     86.35     95.00     2.251     25.31    0.0    0.0
  

  Analysis begun on:  Fri Jan  7 13:48:43 2022
  Analysis ended on:  Fri Jan  7 13:48:46 2022
  Total elapsed time: 00:00:03