
  EPA STORM WATER MANAGEMENT MODEL - VERSION 5.1 (Build 5.3.0.dev0)
  --------------------------------------------------------------

  WARNING 04: minimum elevation drop used for Conduit WS02004404WS02004405
  WARNING 03: negative offset ignored for Link YS02001904YS02001907
  
  *********************************************************
  NOTE: The summary statistics displayed in this report are
  based on results found at every computational time step,  
  not just on results from each reporting time step.
  *********************************************************
  
  ****************
  Analysis Options
  ****************
  Flow Units ............... LPS
  Process Models:
    Rainfall/Runoff ........ YES
    RDII ................... NO
    Snowmelt ............... NO
    Groundwater ............ NO
    Flow Routing ........... YES
    Ponding Allowed ........ NO
    Water Quality .......... NO
  Infiltration Method ...... HORTON
  Flow Routing Method ...... DYNWAVE
  Surcharge Method ......... EXTRAN
  Starting Date ............ 08/28/2015 08:00:00
  Ending Date .............. 08/28/2015 15:50:00
  Antecedent Dry Days ...... 8.0
  Report Time Step ......... 00:01:00
  Wet Time Step ............ 00:01:00
  Dry Time Step ............ 00:01:00
  Routing Time Step ........ 5.00 sec
  Variable Time Step ....... YES
  Maximum Trials ........... 8
  Number of Threads ........ 4
  Head Tolerance ........... 0.001500 m
  
  
  **************************        Volume         Depth
  Runoff Quantity Continuity     hectare-m            mm
  **************************     ---------       -------
  Total Precipitation ......         5.556        12.164
  Evaporation Loss .........         0.000         0.000
  Infiltration Loss ........         1.427         3.124
  Surface Runoff ...........         3.072         6.726
  Final Storage ............         1.058         2.316
  Continuity Error (%) .....        -0.016
  
  
  **************************        Volume        Volume
  Flow Routing Continuity        hectare-m      10^6 ltr
  **************************     ---------     ---------
  Dry Weather Inflow .......         0.616         6.165
  Wet Weather Inflow .......         3.071        30.708
  Groundwater Inflow .......         0.000         0.000
  RDII Inflow ..............         0.000         0.000
  External Inflow ..........         0.102         1.024
  External Outflow .........         2.453        24.530
  Flooding Loss ............         0.983         9.825
  Evaporation Loss .........         0.000         0.000
  Exfiltration Loss ........         0.000         0.000
  Initial Stored Volume ....         0.076         0.761
  Final Stored Volume ......         0.583         5.826
  Continuity Error (%) .....        -3.941
  
  
  *************************
  Highest Continuity Errors
  *************************
  Node JK-storage (-17.27%)
  Node HS02004842 (16.24%)
  Node YS02001884 (12.07%)
  Node YS02001774 (3.55%)
  Node YSB1171 (3.12%)
  
  
  ***************************
  Time-Step Critical Elements
  ***************************
  Link 3 (62.03%)
  Link WS02006252WS02006251 (29.46%)
  Link WS02006238WS02006235 (2.86%)
  Link WS02006280WS02006229 (1.36%)
  
  
  ********************************
  Highest Flow Instability Indexes
  ********************************
  Link YS02001619YS02001622 (41)
  Link YS02163601YS02164001 (39)
  Link YS02163301YS02001633 (39)
  Link YS02001629YS02163301 (39)
  Link YS02164001YS02001641 (36)
  
  
  *************************
  Routing Time Step Summary
  *************************
  Minimum Time Step           :     0.50 sec
  Average Time Step           :     0.74 sec
  Maximum Time Step           :     5.00 sec
  Percent in Steady State     :    -0.00
  Average Iterations per Step :     4.68
  Percent Not Converging      :    24.01
  
  
  ***************************
  Subcatchment Runoff Summary
  ***************************
  
  ------------------------------------------------------------------------------------------------------------------------------
                            Total      Total      Total      Total     Imperv       Perv      Total       Total     Peak  Runoff
                           Precip      Runon       Evap      Infil     Runoff     Runoff     Runoff      Runoff   Runoff   Coeff
  Subcatchment                 mm         mm         mm         mm         mm         mm         mm    10^6 ltr      LPS
  ------------------------------------------------------------------------------------------------------------------------------
  sub0                      12.16       0.00       0.00       0.85      10.05       0.00      10.05        0.01     1.91   0.826
  sub1                      12.16       0.00       0.00       1.34       9.56       0.00       9.56        0.06    14.15   0.786
  sub2                      12.16       0.00       0.00       4.50       6.75       0.00       6.75        0.06    13.75   0.555
  sub3                      12.16       0.00       0.00       4.50       6.71       0.00       6.71        0.15    32.07   0.552
  sub4                      12.16       0.00       0.00       1.34       9.40       0.00       9.40        0.20    40.20   0.773
  sub5                      12.16       0.00       0.00       0.85       9.99       0.00       9.99        0.11    25.19   0.822
  sub7                      12.16       0.00       0.00       1.09       9.81       0.00       9.81        0.03     7.55   0.807
  sub8                      12.16       0.00       0.00       1.09       9.80       0.00       9.80        0.06    14.17   0.806
  sub9                      12.16       0.00       0.00       1.09       9.80       0.00       9.80        0.05    10.64   0.806
  sub10                     12.16       0.00       0.00       0.97       9.89       0.00       9.89        0.11    24.40   0.813
  sub11                     12.16       0.00       0.00       0.97       9.91       0.00       9.91        0.12    26.15   0.815
  sub12                     12.16       0.00       0.00       1.58       9.39       0.00       9.39        0.08    19.06   0.772
  sub14                     12.16       0.00       0.00       1.09       9.80       0.00       9.80        0.09    21.02   0.805
  sub15                     12.16       0.00       0.00       3.65       7.53       0.00       7.53        0.13    29.11   0.619
  sub16                     12.16       0.00       0.00       4.01       7.23       0.00       7.23        0.08    17.47   0.594
  sub17                     12.16       0.00       0.00       3.89       7.34       0.00       7.34        0.06    14.47   0.603
  sub22                     12.16       0.00       0.00       5.23       6.14       0.00       6.14        0.39    88.27   0.505
  sub23                     12.16       0.00       0.00       4.50       6.79       0.00       6.79        0.32    73.89   0.558
  sub60                     12.16       0.00       0.00       1.46       7.71       0.00       7.71        2.34   297.17   0.634
  sub61                     12.16       0.00       0.00       2.07       7.87       0.00       7.87        2.43   359.80   0.647
  sub62                     12.16       0.00       0.00       0.97       8.55       0.00       8.55        2.63   372.87   0.703
  sub63                     12.16       0.00       0.00       3.53       6.89       0.00       6.89        2.09   327.80   0.567
  sub64                     12.16       0.00       0.00       1.82       7.40       0.00       7.40        2.25   282.66   0.608
  sub65                     12.16       0.00       0.00       1.58       7.52       0.00       7.52        2.31   287.20   0.618
  sub66                     12.16       0.00       0.00       3.53       6.36       0.00       6.36        1.95   257.27   0.523
  sub67                     12.16       0.00       0.00       0.97       9.05       0.00       9.05        2.79   452.90   0.744
  sub68                     12.16       0.00       0.00       1.70       8.28       0.00       8.28        2.55   391.99   0.681
  sub69                     12.16       0.00       0.00       1.82       8.61       0.00       8.61        2.01   355.79   0.708
  sub70                     12.16       8.79       0.00       7.03      11.43       0.10      11.53        2.64   335.00   0.550
  sub71                     12.16       0.00       0.00       0.97       8.31       0.00       8.31        1.96   263.63   0.683
  sub72                     12.16       0.00       0.00       0.85       6.56       0.00       6.56        1.34   129.40   0.540
  sub73                     12.16      11.23       0.00       7.88      12.47       0.08      12.54        2.95   300.52   0.536
  sub74                     12.16       0.00       0.00       9.12       2.57       0.00       2.57        1.03   189.59   0.211
  
  
  ******************
  Node Depth Summary
  ******************
  
  ---------------------------------------------------------------------------------
                                 Average  Maximum  Maximum  Time of Max    Reported
                                   Depth    Depth      HGL   Occurrence   Max Depth
  Node                 Type       Meters   Meters   Meters  days hr:min      Meters
  ---------------------------------------------------------------------------------
  WS02001211           JUNCTION     0.68     0.80     5.64     0  02:49        0.80
  WS02001212           JUNCTION     0.41     0.52     5.59     0  02:48        0.52
  WS02001213           JUNCTION     0.65     0.78     5.54     0  02:48        0.78
  WS02003069           JUNCTION     0.48     0.61     5.20     0  02:47        0.61
  WS02003072           JUNCTION     0.55     0.67     5.04     0  02:48        0.67
  WS02003073           JUNCTION     0.33     0.41     4.48     0  02:49        0.41
  WS02003060           JUNCTION     0.43     0.54     5.47     0  02:46        0.54
  WS02003066           JUNCTION     0.26     0.32     5.87     0  02:45        0.32
  WS02003059           JUNCTION     0.71     0.83     5.52     0  02:47        0.83
  WS02003067           JUNCTION     0.62     0.73     6.05     0  02:45        0.73
  WS02004401           JUNCTION     0.74     0.93     6.93     0  02:42        0.93
  WS02004402           JUNCTION     0.77     0.95     6.91     0  02:43        0.95
  WS02004403           JUNCTION     0.79     0.96     6.89     0  02:42        0.96
  WS02004404           JUNCTION     0.86     1.02     6.87     0  02:42        1.02
  WS02004406           JUNCTION     0.86     1.00     6.83     0  02:42        1.00
  WS02004409           JUNCTION     0.56     0.73     6.50     0  02:44        0.73
  WS02004410           JUNCTION     0.58     0.74     6.46     0  02:44        0.74
  WS02004411           JUNCTION     0.59     0.74     6.42     0  02:45        0.74
  WS02004412           JUNCTION     0.60     0.74     6.38     0  02:45        0.74
  WS02004413           JUNCTION     0.76     0.90     6.37     0  02:45        0.90
  WS02004405           JUNCTION     0.86     1.01     6.86     0  02:42        1.01
  WS02006109           JUNCTION     0.83     1.06     7.68     0  02:39        1.05
  WS02006110           JUNCTION     0.81     0.98     7.56     0  02:38        0.98
  WS02006111           JUNCTION     0.25     0.31     7.02     0  02:34        0.31
  WS02006112           JUNCTION     0.92     1.21     7.09     0  02:51        1.17
  WS02006113           JUNCTION     0.38     0.49     7.38     0  02:42        0.49
  WS02006115           JUNCTION     0.64     0.84     6.98     0  02:43        0.84
  WS02006116           JUNCTION     0.72     0.91     6.95     0  02:43        0.91
  WS02006230           JUNCTION     0.84     1.12     7.86     0  02:36        1.12
  WS02006231           JUNCTION     0.57     0.78     7.91     0  02:31        0.78
  WS02006232           JUNCTION     0.71     0.91     7.95     0  02:36        0.91
  WS02006234           JUNCTION     0.64     0.85     8.00     0  02:11        0.84
  WS02006235           JUNCTION     0.67     0.87     8.03     0  02:11        0.87
  WS02006238           JUNCTION     0.69     0.90     8.04     0  02:11        0.89
  WS02006240           JUNCTION     0.60     0.82     8.12     0  02:11        0.80
  WS02006242           JUNCTION     0.66     0.87     8.14     0  02:11        0.86
  WS02006243           JUNCTION     0.54     0.75     8.17     0  02:11        0.74
  WS02006245           JUNCTION     0.51     0.71     8.19     0  02:11        0.71
  WS02006247           JUNCTION     0.52     0.75     8.25     0  02:11        0.71
  WS02006248           JUNCTION     0.47     0.65     8.24     0  02:11        0.64
  WS02006249           JUNCTION     0.49     0.65     8.25     0  02:30        0.65
  WS02006239           JUNCTION     0.66     0.88     8.09     0  02:11        0.86
  WS02006251           JUNCTION     0.48     0.69     8.36     0  02:30        0.69
  WS02006252           JUNCTION     0.42     0.59     8.83     0  07:09        0.59
  WS02006253           JUNCTION     0.51     0.72     8.36     0  02:30        0.72
  WS02006256           JUNCTION     1.12     1.22     8.15     0  02:30        1.22
  WS02004138           JUNCTION     0.15     0.19     7.44     0  02:32        0.19
  WS02004407           JUNCTION     0.25     0.32     6.63     0  02:44        0.32
  WS02006228           JUNCTION     0.85     1.12     7.77     0  02:41        1.11
  WS02006229           JUNCTION     0.83     1.12     7.81     0  02:40        1.12
  WS02006280           JUNCTION     0.07     0.19     8.46     0  03:02        0.19
  WS02006284           JUNCTION     0.38     0.55     8.95     0  03:02        0.55
  WS02006287           JUNCTION     0.11     0.28     9.24     0  03:01        0.28
  WSF200               JUNCTION     0.25     0.34     5.57     0  02:46        0.34
  HS02004901           JUNCTION     0.13     0.28    10.10     0  03:01        0.28
  HS02004881           JUNCTION     0.01     0.04     9.07     0  03:01        0.04
  HS02004876           JUNCTION     0.05     0.12     9.15     0  03:01        0.12
  HS02004870           JUNCTION     0.02     0.06     9.35     0  03:01        0.06
  HS02004862           JUNCTION     0.02     0.07     9.46     0  03:01        0.07
  HS02004856           JUNCTION     0.08     0.13     9.55     0  03:01        0.13
  HS02004852           JUNCTION     0.01     0.05     9.56     0  03:01        0.05
  HS02004848           JUNCTION     0.01     0.05     9.65     0  03:01        0.05
  HS02004842           JUNCTION     0.34     0.38     9.65     0  03:01        0.38
  HS02004837           JUNCTION     0.03     0.07     9.65     0  03:01        0.07
  HS02004830           JUNCTION     0.04     0.08     9.55     0  03:01        0.08
  HS02004824           JUNCTION     0.03     0.06     9.46     0  03:01        0.06
  HS02004817           JUNCTION     0.45     0.60     9.44     0  03:01        0.60
  HS02004807           JUNCTION     0.13     0.27     9.44     0  03:01        0.27
  HS02004802           JUNCTION     0.17     0.30     9.43     0  03:01        0.30
  HS02004799           JUNCTION     0.13     0.33     9.54     0  03:01        0.33
  HS02004792           JUNCTION     0.04     0.14     9.66     0  03:01        0.14
  HS02004788           JUNCTION     0.03     0.10    10.00     0  03:01        0.10
  HS02004785           JUNCTION     0.05     0.17    10.07     0  03:01        0.17
  HS02004777           JUNCTION     0.16     0.30    10.10     0  03:01        0.30
  HS02004770           JUNCTION     0.13     0.27    10.10     0  03:01        0.27
  HS02004480           JUNCTION     0.09     0.26     9.50     0  03:01        0.26
  HS02004479           JUNCTION     0.13     0.30     9.50     0  03:01        0.30
  HS02004478           JUNCTION     0.07     0.18     9.41     0  03:01        0.18
  YS02001745           JUNCTION     0.66     0.87     8.38     0  03:35        0.87
  YS02001748           JUNCTION     1.05     2.27     9.35     0  02:43        1.30
  YS02001751           JUNCTION     1.23     2.15     9.03     0  02:44        1.51
  YS02001754           JUNCTION     1.48     2.20     8.80     0  02:45        1.79
  YS02001762           JUNCTION     1.69     2.08     8.48     0  02:45        2.01
  YS02001765           JUNCTION     1.64     2.02     8.47     0  02:44        1.96
  YS02001767           JUNCTION     1.60     1.98     8.47     0  02:45        1.91
  YS02001770           JUNCTION     1.60     1.95     8.44     0  02:44        1.90
  YS02001774           JUNCTION     1.67     2.01     8.43     0  02:45        1.96
  YS02001779           JUNCTION     1.41     1.68     8.37     0  02:43        1.68
  YS02001882           JUNCTION     0.54     1.64     8.35     0  02:56        1.60
  YS02001884           JUNCTION     0.63     1.73     8.35     0  02:56        1.69
  YS02001759           JUNCTION     1.72     2.12     8.48     0  02:45        2.05
  YS02001887           JUNCTION     0.71     1.80     8.34     0  02:56        1.78
  YS02001890           JUNCTION     0.74     1.81     8.32     0  02:56        1.80
  YS02001898           JUNCTION     0.51     1.57     8.31     0  02:56        1.54
  YS02001901           JUNCTION     0.63     1.68     8.29     0  02:56        1.66
  YS02001904           JUNCTION     0.61     1.64     8.27     0  02:56        1.63
  YS02001907           JUNCTION     0.94     1.96     8.25     0  02:56        1.96
  YS02001910           JUNCTION     0.73     1.80     8.31     0  02:58        1.78
  YS02001915           JUNCTION     0.52     1.63     8.35     0  02:58        1.59
  YS02001918           JUNCTION     0.27     1.34     8.40     0  02:58        1.28
  YS02001619           JUNCTION     1.20     1.57     8.50     0  02:43        1.47
  YS02001629           JUNCTION     1.56     1.85     8.40     0  02:42        1.84
  YS02001641           JUNCTION     1.65     1.95     8.38     0  02:46        1.93
  YS02001644           JUNCTION     1.66     1.92     8.35     0  02:44        1.92
  YS02001652           JUNCTION     1.50     2.16     8.76     0  02:57        1.90
  YS02001655           JUNCTION     1.26     2.20     9.05     0  02:59        1.80
  YS02001920           JUNCTION     0.36     1.43     8.44     0  02:58        1.36
  YS02001923           JUNCTION     0.20     1.20     8.46     0  02:58        1.13
  YS02001926           JUNCTION     0.26     1.17     8.61     0  02:58        0.91
  YS02001929           JUNCTION     0.14     0.79     8.48     0  02:58        0.78
  YS02001658           JUNCTION     0.99     2.30     9.44     0  02:57        1.68
  YS02001661           JUNCTION     0.76     2.46     9.86     0  02:57        1.63
  YS02001664           JUNCTION     0.32     0.57     8.50     0  02:55        0.56
  YS02001622           JUNCTION     1.22     1.54     8.45     0  02:43        1.49
  YS02001633           JUNCTION     1.65     1.97     8.43     0  02:46        1.94
  YS02001649           JUNCTION     1.69     2.05     8.44     0  02:55        2.05
  YS02001757           JUNCTION     1.82     2.21     8.47     0  02:44        2.15
  YS02001895           JUNCTION     0.50     1.57     8.32     0  02:56        1.54
  YS02001625           JUNCTION     1.51     1.78     8.38     0  02:42        1.78
  YS02163301           JUNCTION     1.59     1.90     8.42     0  02:46        1.87
  YS02163601           JUNCTION     1.70     2.01     8.41     0  02:46        1.98
  YS02164001           JUNCTION     1.64     1.95     8.40     0  02:46        1.91
  YS02001647           JUNCTION     1.48     1.80     8.41     0  02:45        1.79
  YSB1154              JUNCTION     0.27     0.45     9.51     0  03:01        0.45
  YSB6556              JUNCTION     0.16     0.34     9.51     0  03:01        0.34
  YSB1174              JUNCTION     0.22     0.40     9.51     0  03:01        0.40
  YSB1171              JUNCTION     0.42     0.60     9.51     0  03:01        0.60
  YS02006553           JUNCTION     0.94     1.97     8.25     0  02:59        1.96
  YS02006561           JUNCTION     0.31     1.45     8.11     0  02:54        1.07
  YS02006556           JUNCTION     0.91     1.98     8.29     0  02:54        1.91
  YS02006558           JUNCTION     0.95     2.05     8.31     0  02:54        1.95
  YS02001783           JUNCTION     0.53     1.76     7.90     0  02:54        1.46
  YS02001784           JUNCTION     0.54     1.70     7.77     0  02:54        1.41
  YS02001786           JUNCTION     0.48     1.95     7.98     0  02:54        1.25
  YS02001788           JUNCTION     0.41     1.77     7.75     0  02:54        1.12
  YS02001790           JUNCTION     0.51     1.96     7.60     0  02:53        1.29
  YS02001791           JUNCTION     0.46     1.57     7.04     0  02:53        1.27
  YS02001793           JUNCTION     0.60     1.82     6.65     0  02:55        1.80
  WS02004139           JUNCTION     0.62     0.75     5.66     0  02:49        0.75
  WSC                  OUTFALL      0.33     0.41     1.08     0  02:49        0.41
  3                    OUTFALL      0.14     0.21     6.21     0  02:30        0.21
  4                    OUTFALL      0.05     0.15     7.15     0  02:30        0.15
  5                    OUTFALL      0.00     0.00     5.00     0  00:00        0.00
  JK-storage           STORAGE      2.19     5.80     6.60     0  02:54        5.80
  CC-storage           STORAGE      1.03     1.37     8.37     0  05:41        1.37
  XR-storage           STORAGE      6.92     7.72     5.72     0  02:58        7.72
  
  
  *******************
  Node Inflow Summary
  *******************
  
  -------------------------------------------------------------------------------------------------
                                  Maximum  Maximum                  Lateral       Total        Flow
                                  Lateral    Total  Time of Max      Inflow      Inflow     Balance
                                   Inflow   Inflow   Occurrence      Volume      Volume       Error
  Node                 Type           LPS      LPS  days hr:min    10^6 ltr    10^6 ltr     Percent
  -------------------------------------------------------------------------------------------------
  WS02001211           JUNCTION      7.35   387.67     0  02:50       0.207         7.3       0.425
  WS02001212           JUNCTION      0.00   387.68     0  02:50           0        7.27       0.230
  WS02001213           JUNCTION      0.00   387.75     0  02:50           0        7.26       0.289
  WS02003069           JUNCTION      0.32  1029.57     0  02:47     0.00902        16.9       0.169
  WS02003072           JUNCTION      0.00  1029.55     0  02:47           0        16.8       0.209
  WS02003073           JUNCTION      1.82  1031.37     0  02:48      0.0514        16.8       0.236
  WS02003060           JUNCTION     16.53  1029.30     0  02:46       0.466        16.9       0.160
  WS02003066           JUNCTION      0.00   625.37     0  02:45           0        9.22       0.050
  WS02003059           JUNCTION      0.00   387.86     0  02:50           0        7.24       0.499
  WS02003067           JUNCTION      0.00   625.35     0  02:45           0        9.23       0.105
  WS02004401           JUNCTION      0.00   625.76     0  02:41           0        9.47       0.235
  WS02004402           JUNCTION      0.00   625.94     0  02:42           0        9.45       0.220
  WS02004403           JUNCTION      0.00   625.67     0  02:42           0        9.42       0.200
  WS02004404           JUNCTION      0.16   625.52     0  02:43     0.00457        9.41       0.150
  WS02004406           JUNCTION      0.00   625.59     0  02:43           0        9.38       0.365
  WS02004409           JUNCTION      0.00   625.54     0  02:44           0        9.33       0.186
  WS02004410           JUNCTION      0.00   625.48     0  02:44           0        9.32       0.209
  WS02004411           JUNCTION      0.00   625.41     0  02:44           0         9.3       0.213
  WS02004412           JUNCTION      0.00   625.38     0  02:45           0        9.28       0.229
  WS02004413           JUNCTION      0.00   625.38     0  02:45           0        9.26       0.337
  WS02004405           JUNCTION      0.04   625.55     0  02:43     0.00107         9.4       0.224
  WS02006109           JUNCTION      1.23   613.83     0  02:41      0.0347        9.53       0.209
  WS02006110           JUNCTION      0.00   613.88     0  02:40           0        9.51       0.226
  WS02006111           JUNCTION      0.00   645.24     0  02:40           0        9.48       0.048
  WS02006112           JUNCTION     14.47   631.83     0  02:35      0.0629        9.54       0.320
  WS02006113           JUNCTION      0.00   614.56     0  02:40           0        9.49       0.108
  WS02006115           JUNCTION      0.00   635.37     0  02:35           0        9.51       0.229
  WS02006116           JUNCTION      0.00   626.39     0  02:41           0        9.49       0.201
  WS02006230           JUNCTION     10.28   401.17     0  05:59        0.29        7.65       0.161
  WS02006231           JUNCTION      0.00   391.51     0  04:42           0        7.37       0.172
  WS02006232           JUNCTION      0.00   391.56     0  04:42           0        7.39       0.221
  WS02006234           JUNCTION      0.00   392.99     0  04:41           0         7.4       0.118
  WS02006235           JUNCTION      0.00   392.86     0  04:41           0        7.44       0.148
  WS02006238           JUNCTION      0.00   312.33     0  06:40           0        5.36       0.152
  WS02006240           JUNCTION      0.00   323.68     0  05:52           0        5.35       0.233
  WS02006242           JUNCTION      0.00   334.99     0  05:51           0        5.36       0.276
  WS02006243           JUNCTION      0.00   344.27     0  05:51           0        5.35       0.052
  WS02006245           JUNCTION      0.00   347.64     0  05:51           0        5.36       0.175
  WS02006247           JUNCTION      0.00   351.34     0  05:51           0        5.37       0.129
  WS02006248           JUNCTION      0.00   357.70     0  02:10           0        5.37       0.079
  WS02006249           JUNCTION      0.00   458.75     0  02:30           0        6.43       0.157
  WS02006239           JUNCTION      0.00   312.31     0  06:40           0        5.36       0.212
  WS02006251           JUNCTION      0.08   458.94     0  02:30     0.00217        6.45       0.141
  WS02006252           JUNCTION      0.00   400.00     0  02:10           0        6.07       0.007
  WS02006253           JUNCTION      1.91    80.98     0  03:01     0.00814       0.382       0.976
  WS02006256           JUNCTION      0.00   600.00     0  02:07           0        8.79       0.031
  WS02004138           JUNCTION      0.00   380.00     0  02:30           0        7.12       0.052
  WS02004407           JUNCTION      0.00   625.60     0  02:44           0        9.34       0.083
  WS02006228           JUNCTION      0.00   612.70     0  02:41           0        9.51       0.156
  WS02006229           JUNCTION      0.00   612.43     0  02:40           0        9.52       0.127
  WS02006280           JUNCTION      0.00   375.54     0  03:02           0        1.89       0.004
  WS02006284           JUNCTION      0.10   375.54     0  03:02      0.0027        1.89       0.064
  WS02006287           JUNCTION      0.00   375.26     0  03:01           0        1.89       0.037
  WSF200               JUNCTION      0.00   625.37     0  02:46           0        9.21       0.052
  HS02004901           JUNCTION     17.47    17.47     0  03:01      0.0757      0.0759       2.380
  HS02004881           JUNCTION      7.55    79.19     0  03:01      0.0331       0.357       0.101
  HS02004876           JUNCTION     14.15    72.10     0  03:01      0.0636       0.324       0.171
  HS02004870           JUNCTION     14.17    58.27     0  03:01      0.0626       0.261       0.043
  HS02004862           JUNCTION     13.95    44.46     0  03:01      0.0685       0.198       0.089
  HS02004856           JUNCTION     10.64    30.80     0  03:01      0.0471       0.131       1.117
  HS02004852           JUNCTION      0.00    20.44     0  03:01           0       0.084       0.069
  HS02004848           JUNCTION     32.07    32.07     0  03:01       0.151       0.151       0.033
  HS02004842           JUNCTION      0.00    11.42     0  03:01           0      0.0801      19.392
  HS02004837           JUNCTION     30.75    41.91     0  03:01       0.288       0.355       0.229
  HS02004830           JUNCTION      0.15    41.84     0  03:01     0.00423       0.346       0.358
  HS02004824           JUNCTION     40.25    81.79     0  03:01       0.197       0.542       0.100
  HS02004817           JUNCTION      0.60    82.18     0  03:01      0.0169       0.558       3.079
  HS02004807           JUNCTION     26.15   107.25     0  03:01       0.115       0.657       0.656
  HS02004802           JUNCTION      0.00   106.49     0  03:01           0       0.653       0.617
  HS02004799           JUNCTION     21.02   227.51     0  03:01      0.0932        1.06       0.236
  HS02004792           JUNCTION     88.55   207.33     0  03:01       0.396       0.966       0.043
  HS02004788           JUNCTION     30.78   119.38     0  03:01       0.177       0.571       0.069
  HS02004785           JUNCTION      0.15    89.79     0  03:01     0.00423       0.396       0.125
  HS02004777           JUNCTION      0.03    90.24     0  03:01    0.000846       0.397       1.326
  HS02004770           JUNCTION     73.89    90.93     0  03:01       0.324       0.398       0.787
  HS02004480           JUNCTION      0.00   269.27     0  03:01           0        1.25       0.099
  HS02004479           JUNCTION      0.00    42.82     0  03:02           0       0.204       0.360
  HS02004478           JUNCTION      0.00   375.17     0  03:01           0        1.89       0.018
  YS02001745           JUNCTION    297.18   382.04     0  02:43        2.34        2.34       0.343
  YS02001748           JUNCTION      0.04   596.21     0  02:44     0.00127        2.34       0.930
  YS02001751           JUNCTION      0.01   311.69     0  03:01     0.00031        2.31       1.033
  YS02001754           JUNCTION      0.26   311.98     0  03:01     0.00733        2.29       1.106
  YS02001762           JUNCTION      0.00   342.57     0  02:56           0         1.9       1.112
  YS02001765           JUNCTION      0.00   342.49     0  02:56           0         1.9       1.290
  YS02001767           JUNCTION      0.54   342.54     0  02:56      0.0151        1.92       1.894
  YS02001770           JUNCTION    373.02   373.02     0  03:01        2.63        2.64       1.212
  YS02001774           JUNCTION      0.00   211.78     0  03:39           0       0.708       3.677
  YS02001779           JUNCTION      0.01   211.85     0  03:39    0.000141       0.676       2.353
  YS02001882           JUNCTION      0.00    11.48     0  02:28           0      0.0158      16.568
  YS02001884           JUNCTION      0.00    18.74     0  02:40           0      0.0507      13.732
  YS02001759           JUNCTION    359.84   674.79     0  02:56        2.43        4.29       0.533
  YS02001887           JUNCTION    453.35   453.47     0  03:01         2.8        2.83       0.300
  YS02001890           JUNCTION      0.00   453.43     0  03:00           0        2.79       0.331
  YS02001898           JUNCTION      0.00   453.51     0  03:01           0        2.77       0.117
  YS02001901           JUNCTION      0.00   453.61     0  03:01           0        2.77       0.249
  YS02001904           JUNCTION      0.00   453.52     0  03:01           0        2.77       0.227
  YS02001907           JUNCTION      0.00   967.80     0  02:59           0        6.12       0.397
  YS02001910           JUNCTION      0.00   528.17     0  02:59           0        3.37       0.350
  YS02001915           JUNCTION    263.65   527.94     0  02:59        1.96         3.4       0.176
  YS02001918           JUNCTION      0.00   273.58     0  02:59           0        1.45       0.129
  YS02001619           JUNCTION    257.27   257.27     0  03:01        1.95        1.95       0.630
  YS02001629           JUNCTION      0.00   212.97     0  02:50           0        1.64       1.779
  YS02001641           JUNCTION      0.00   448.92     0  02:50           0        3.85       0.545
  YS02001644           JUNCTION    282.70   919.31     0  03:35        2.25        7.58       0.343
  YS02001652           JUNCTION      0.00   377.22     0  03:01           0        2.04       1.151
  YS02001655           JUNCTION      0.15   377.16     0  03:01     0.00434        2.07       1.240
  YS02001920           JUNCTION      2.87   273.48     0  02:59      0.0809        1.45       0.198
  YS02001923           JUNCTION      0.04   304.73     0  02:58     0.00106        1.36       0.035
  YS02001926           JUNCTION      0.05   288.64     0  02:59     0.00147        1.34       0.244
  YS02001929           JUNCTION    129.40   190.89     0  02:57        1.34        1.34       0.041
  YS02001658           JUNCTION      0.00   472.99     0  02:43           0        2.09       0.972
  YS02001661           JUNCTION      0.00   699.65     0  02:55           0         2.8      -0.157
  YS02001664           JUNCTION    327.80   358.15     0  02:55        2.09         2.8       0.130
  YS02001622           JUNCTION      0.00   257.47     0  03:01           0        1.94       1.666
  YS02001633           JUNCTION    287.40   448.99     0  02:50        2.32        3.91       0.821
  YS02001649           JUNCTION      0.00   950.51     0  02:51           0        4.96       0.745
  YS02001757           JUNCTION      0.00  1807.60     0  02:52           0        9.92       0.934
  YS02001895           JUNCTION      0.00   453.44     0  03:00           0        2.78       0.176
  YS02001625           JUNCTION      0.00   257.34     0  03:01           0         1.9       2.061
  YS02163301           JUNCTION      0.00   213.21     0  02:50           0        1.62       1.491
  YS02163601           JUNCTION      0.11   449.15     0  02:50      0.0031        3.87       0.777
  YS02164001           JUNCTION      0.00   449.29     0  02:50           0        3.85       0.519
  YS02001647           JUNCTION      0.00   680.86     0  02:50           0        3.82       0.746
  YSB1154              JUNCTION     25.19    25.19     0  03:01       0.113       0.114       1.285
  YSB6556              JUNCTION      0.00    24.91     0  03:01           0       0.115       1.100
  YSB1174              JUNCTION     19.06    19.06     0  03:01      0.0821      0.0827       1.581
  YSB1171              JUNCTION      0.00    43.19     0  03:01           0       0.203       3.219
  YS02006553           JUNCTION      0.00   668.00     0  03:16           0        5.94       0.263
  YS02006561           JUNCTION      0.00  1008.04     0  02:54           0        8.46       0.009
  YS02006556           JUNCTION      0.00   668.28     0  03:16           0        5.94       0.189
  YS02006558           JUNCTION    392.87  1007.69     0  02:54        2.57        8.49       0.063
  YS02001783           JUNCTION      0.00   994.81     0  02:53           0        8.46       0.028
  YS02001784           JUNCTION      1.06   995.83     0  02:53      0.0299        8.48       0.044
  YS02001786           JUNCTION      0.06   995.69     0  02:53     0.00159        8.48       0.041
  YS02001788           JUNCTION      0.07   978.02     0  02:53       0.002        8.48       0.023
  YS02001790           JUNCTION      0.15   974.06     0  02:52     0.00437        8.48       0.032
  YS02001791           JUNCTION      0.00  1013.41     0  02:52           0        8.48       0.011
  YS02001793           JUNCTION      0.00   965.51     0  03:00           0        8.48       0.004
  WS02004139           JUNCTION      0.32   380.32     0  02:32     0.00905        7.13       0.455
  WSC                  OUTFALL       0.00  1031.33     0  02:49           0        16.8       0.000
  3                    OUTFALL       0.00   532.47     0  02:30           0        6.68       0.000
  4                    OUTFALL       0.00   206.05     0  02:30           0        1.05       0.000
  5                    OUTFALL       0.00     0.00     0  00:00           0           0       0.000 ltr
  JK-storage           STORAGE       0.00   965.60     0  03:01           0        8.63     -14.727
  CC-storage           STORAGE       0.00  1808.01     0  02:52           0        9.16       0.633
  XR-storage           STORAGE     690.11   690.11     0  03:01        9.61        10.2      -0.001
  
  
  **********************
  Node Surcharge Summary
  **********************
  
  Surcharging occurs when water rises above the top of the highest conduit.
  ---------------------------------------------------------------------
                                               Max. Height   Min. Depth
                                   Hours       Above Crown    Below Rim
  Node                 Type      Surcharged         Meters       Meters
  ---------------------------------------------------------------------
  WS02004404           JUNCTION        0.68          0.025        2.755
  WS02004406           JUNCTION        0.22          0.003        2.447
  WS02004405           JUNCTION        0.43          0.013        2.787
  WS02006109           JUNCTION        4.24          0.243        1.577
  WS02006110           JUNCTION        1.13          0.068        1.782
  WS02006112           JUNCTION        1.26          0.208        1.472
  WS02006230           JUNCTION        0.52          0.036        1.534
  WS02006231           JUNCTION        0.80          0.074        1.456
  WS02006232           JUNCTION        4.36          0.214        1.266
  WS02006234           JUNCTION        1.02          0.127        1.113
  WS02006235           JUNCTION        3.15          0.161        1.129
  WS02006238           JUNCTION        3.59          0.176        1.254
  WS02006240           JUNCTION        0.89          0.114        1.276
  WS02006242           JUNCTION        2.86          0.136        0.684
  WS02006243           JUNCTION        0.55          0.044        0.726
  WS02006247           JUNCTION        0.05          0.043        0.717
  WS02006239           JUNCTION        1.19          0.139        1.151
  WS02006252           JUNCTION        3.77          0.193        0.907
  WS02006228           JUNCTION        4.08          0.289        1.911
  YS02001748           JUNCTION        4.37          1.190        0.000
  YS02001751           JUNCTION        5.15          1.152        0.048
  YS02001754           JUNCTION        5.37          1.146        0.004
  YS02001762           JUNCTION        5.64          1.080        0.070
  YS02001765           JUNCTION        5.61          1.019        0.081
  YS02001767           JUNCTION        5.58          0.981        0.049
  YS02001770           JUNCTION        5.46          0.920        0.000
  YS02001774           JUNCTION        5.63          1.009        0.041
  YS02001779           JUNCTION        5.36          0.680        0.000
  YS02001882           JUNCTION        0.72          0.635        0.195
  YS02001884           JUNCTION        0.76          0.671        0.199
  YS02001759           JUNCTION        5.66          1.118        0.092
  YS02001887           JUNCTION        0.87          0.753        0.197
  YS02001890           JUNCTION        0.91          0.760        0.000
  YS02001898           JUNCTION        0.66          0.541        0.199
  YS02001901           JUNCTION        0.82          0.681        0.189
  YS02001904           JUNCTION        0.79          0.637        0.213
  YS02001907           JUNCTION        1.48          0.950        0.000
  YS02001910           JUNCTION        0.96          0.801        0.299
  YS02001915           JUNCTION        0.69          0.628        0.372
  YS02001918           JUNCTION        0.44          0.336        0.474
  YS02001619           JUNCTION        5.19          0.570        0.040
  YS02001629           JUNCTION        5.19          0.470        0.000
  YS02001641           JUNCTION        5.62          0.948        0.152
  YS02001644           JUNCTION        5.62          0.920        0.000
  YS02001652           JUNCTION        5.39          1.130        0.000
  YS02001655           JUNCTION        5.20          1.200        0.000
  YS02001920           JUNCTION        0.48          0.430        0.710
  YS02001926           JUNCTION        0.01          0.166        0.734
  YS02001658           JUNCTION        4.42          1.300        0.000
  YS02001661           JUNCTION        0.22          1.390        0.000
  YS02001622           JUNCTION        5.22          0.542        0.078
  YS02001633           JUNCTION        5.60          0.954        0.106
  YS02001649           JUNCTION        5.64          1.050        0.000
  YS02001757           JUNCTION        5.74          1.210        0.000
  YS02001895           JUNCTION        0.68          0.569        0.181
  YS02001625           JUNCTION        5.39          0.780        0.000
  YS02163301           JUNCTION        5.58          0.904        0.126
  YS02163601           JUNCTION        5.64          1.015        0.065
  YS02164001           JUNCTION        5.61          0.946        0.154
  YS02001647           JUNCTION        5.39          0.804        0.096
  YS02006553           JUNCTION        1.54          0.966        0.224
  YS02006561           JUNCTION        0.56          0.646        0.504
  YS02006556           JUNCTION        1.20          0.938        0.412
  YS02006558           JUNCTION        1.15          0.946        0.454
  YS02001783           JUNCTION        1.12          0.963        0.637
  YS02001784           JUNCTION        1.15          0.901        0.589
  YS02001786           JUNCTION        1.02          1.149        0.281
  YS02001788           JUNCTION        1.00          0.971        0.509
  YS02001790           JUNCTION        1.45          1.157        0.000
  YS02001791           JUNCTION        1.59          0.767        1.153
  YS02001793           JUNCTION        1.80          0.820        1.780
  
  
  *********************
  Node Flooding Summary
  *********************
  
  Flooding refers to all water that overflows a node, whether it ponds or not.
  --------------------------------------------------------------------------
                                                             Total   Maximum
                                 Maximum   Time of Max       Flood    Ponded
                        Hours       Rate    Occurrence      Volume     Depth
  Node                 Flooded       LPS   days hr:min    10^6 ltr    Meters
  --------------------------------------------------------------------------
  YS02001748              0.01    219.74      0  02:45       0.001     0.000
  YS02001770              0.01      5.51      0  02:45       0.000     0.000
  YS02001779              2.23    211.84      0  03:39       0.654     0.000
  YS02001890              0.01      5.13      0  02:56       0.000     0.000
  YS02001907              0.32    384.80      0  02:59       0.169     0.000
  YS02001629              0.01     27.53      0  02:42       0.000     0.000
  YS02001644              3.20    919.27      0  03:35       5.235     0.000
  YS02001652              0.01     24.19      0  03:07       0.000     0.000
  YS02001655              0.01     17.93      0  03:10       0.000     0.000
  YS02001658              0.01     13.87      0  03:12       0.000     0.000
  YS02001661              0.01    189.59      0  03:07       0.002     0.000
  YS02001649              0.09     52.51      0  03:07       0.006     0.000
  YS02001757              0.01     22.79      0  02:45       0.000     0.000
  YS02001625              0.83    168.10      0  03:01       0.229     0.000
  YS02001790              0.01     73.40      0  02:53       0.000     0.000
  JK-storage              1.34    634.05      0  03:20       1.331     0.000
  XR-storage              3.34    585.62      0  03:01       2.199     0.000
  
  
  **********************
  Storage Volume Summary
  **********************
  
  --------------------------------------------------------------------------------------------------
                         Average     Avg  Evap Exfil       Maximum     Max    Time of Max    Maximum
                          Volume    Pcnt  Pcnt  Pcnt        Volume    Pcnt     Occurrence    Outflow
  Storage Unit           1000 m3    Full  Loss  Loss       1000 m3    Full    days hr:min        LPS
  --------------------------------------------------------------------------------------------------
  JK-storage               0.110      38     0     0         0.291     100       0  02:54     600.00
  CC-storage               2.871      18     0     0         3.817      24       0  05:41     400.00
  XR-storage               0.831      90     0     0         0.926     100       0  02:58     380.00
  
  
  ***********************
  Outfall Loading Summary
  ***********************
  
  -----------------------------------------------------------
                         Flow       Avg       Max       Total
                         Freq      Flow      Flow      Volume
  Outfall Node           Pcnt       LPS       LPS    10^6 ltr
  -----------------------------------------------------------
  WSC                  100.00    687.81   1031.33      16.803
  3                     94.25    329.55    532.47       6.681
  4                     59.82     74.98    206.05       1.046
  5                      0.00      0.00      0.00       0.000
  -----------------------------------------------------------
  System                63.52   1092.35   1695.88      24.530
  
  
  ********************
  Link Flow Summary
  ********************
  
  -----------------------------------------------------------------------------
                                 Maximum  Time of Max   Maximum    Max/    Max/
                                  |Flow|   Occurrence   |Veloc|    Full    Full
  Link                 Type          LPS  days hr:min     m/sec    Flow   Depth
  -----------------------------------------------------------------------------
  WS02003066WSF200     CONDUIT    625.37     0  02:46      2.83    0.11    0.25
  WS02006287WS02006284 CONDUIT    375.44     0  03:02      1.98    0.17    0.29
  WS02006284WS02006280 CONDUIT    375.54     0  03:02      2.22    0.16    0.27
  WS02006280WS02006229 CONDUIT    375.57     0  03:02      3.58    0.08    0.19
  WS02006229WS02006228 CONDUIT    612.70     0  02:41      1.22    2.03    1.00
  WS02006256WS02006235 CONDUIT    149.95     0  00:15      2.14    1.59    1.00
  WS02006253WS02006251 CONDUIT     80.30     0  03:00      0.58    0.24    0.99
  WS02006252WS02006251 CONDUIT    400.92     0  05:50      3.19    1.47    1.00
  WS02006251WS02006249 CONDUIT    458.75     0  02:30      1.24    1.32    0.96
  WS02006249WS02006248 CONDUIT    357.70     0  02:10      1.16    1.96    0.91
  WS02006248WS02006247 CONDUIT    351.34     0  05:51      1.12    0.76    0.96
  WS02006247WS02006245 CONDUIT    347.64     0  05:51      1.09    2.76    1.00
  WS02006245WS02006243 CONDUIT    344.27     0  05:51      1.11    1.02    1.00
  WS02006243WS02006242 CONDUIT    334.99     0  05:51      1.01    0.72    1.00
  WS02006242WS02006240 CONDUIT    323.68     0  05:52      0.95    1.29    1.00
  WS02006240WS02006239 CONDUIT    312.31     0  06:40      0.98    0.98    1.00
  WS02006239WS02006238 CONDUIT    312.33     0  06:40      0.87    1.00    1.00
  WS02006238WS02006235 CONDUIT    312.33     0  06:40      0.85    0.70    1.00
  WS02006235WS02006234 CONDUIT    392.99     0  04:41      1.05    4.15    1.00
  WS02006234WS02006232 CONDUIT    391.56     0  04:42      1.02    0.79    1.00
  WS02006232WS02006231 CONDUIT    391.51     0  04:42      1.06    0.82    1.00
  WS02006231WS02006230 CONDUIT    390.89     0  05:59      1.36    5.93    1.00
  WS02006230WS02006229 CONDUIT    400.90     0  05:02      1.04    8.92    1.00
  WS02006228WS02006109 CONDUIT    612.60     0  02:41      1.22    2.68    1.00
  WS02006116WS02004401 CONDUIT    625.76     0  02:41      0.83    0.86    0.92
  WS02006115WS02006116 CONDUIT    626.39     0  02:41      0.90    0.80    0.84
  WS02006113WS02006111 CONDUIT    645.24     0  02:40      2.58    0.77    0.50
  WS02006112WS02006115 CONDUIT    635.37     0  02:35      0.85    0.38    0.91
  WS02006111WS02006112 CONDUIT    620.66     0  02:35      1.69    0.30    0.69
  WS02006110WS02006113 CONDUIT    614.56     0  02:40      1.42    0.56    0.81
  WS02006109WS02006110 CONDUIT    613.88     0  02:40      1.22    1.18    1.00
  WS02004411WS02004412 CONDUIT    625.38     0  02:45      1.00    0.89    0.74
  WS02004401WS02004402 CONDUIT    625.94     0  02:42      0.83    0.75    0.94
  WS02004413WS02003067 CONDUIT    625.35     0  02:45      1.21    0.27    0.63
  WS02004412WS02004413 CONDUIT    625.38     0  02:45      0.91    0.42    0.82
  WS02004410WS02004411 CONDUIT    625.41     0  02:44      1.00    0.85    0.74
  WS02004409WS02004410 CONDUIT    625.48     0  02:44      1.01    0.81    0.73
  WS02004407WS02004409 CONDUIT    625.54     0  02:44      1.50    0.22    0.52
  WS02004406WS02004407 CONDUIT    625.60     0  02:44      1.14    0.28    0.66
  WS02004405WS02004406 CONDUIT    625.59     0  02:43      0.80    1.23    1.00
  WS02004404WS02004405 CONDUIT    625.51     0  02:43      0.96    6.13    1.00
  WS02004403WS02004404 CONDUIT    625.35     0  02:43      0.84    0.45    0.98
  WS02004402WS02004403 CONDUIT    625.67     0  02:42      0.85    0.90    0.95
  WS02004139WS02001211 CONDUIT    380.33     0  02:50      0.69    0.48    0.60
  WS02004138WS02004139 CONDUIT    380.00     0  02:32      2.95    0.08    0.44
  WS02003067WS02003066 CONDUIT    625.37     0  02:45      1.31    0.20    0.44
  WS02001213WS02003059 CONDUIT    387.86     0  02:50      0.67    0.64    0.80
  WS02001212WS02001213 CONDUIT    387.75     0  02:50      1.30    0.60    0.49
  WS02001211WS02001212 CONDUIT    387.68     0  02:50      0.76    0.30    0.66
  WS02003072WS02003073 CONDUIT   1029.55     0  02:48      1.78    2.22    0.51
  WS02003069WS02003072 CONDUIT   1029.55     0  02:47      1.67    0.50    0.54
  WS02003060WS02003069 CONDUIT   1029.25     0  02:47      1.91    0.40    0.48
  WS02003059WS02003060 CONDUIT    388.21     0  02:51      0.91    0.25    0.69
  HS02004901HS02004770 CONDUIT     17.71     0  03:01      0.07    0.07    0.39
  HS02004876HS02004881 CONDUIT     71.90     0  03:01      0.92    0.76    0.11
  HS02004870HS02004876 CONDUIT     58.03     0  03:01      0.63    0.04    0.13
  HS02004842HS02004848 CONDUIT     11.42     0  03:01      0.05    0.01    0.30
  HS02004837HS02004842 CONDUIT     11.94     0  03:02      0.42    0.01    0.32
  HS02004830HS02004837 CONDUIT     41.69     0  03:01      0.56    0.04    0.11
  HS02004824HS02004830 CONDUIT     41.67     0  03:01      0.58    0.05    0.10
  HS02004817HS02004824 CONDUIT     81.58     0  03:01      0.25    0.04    0.47
  HS02004770HS02004777 CONDUIT     90.21     0  03:01      0.32    0.16    0.41
  HS02004799HS02004480 CONDUIT    226.97     0  03:01      0.78    0.29    0.42
  HS02004792HS02004799 CONDUIT    206.60     0  03:01      0.88    0.13    0.33
  HS02004788HS02004792 CONDUIT    118.94     0  03:01      1.01    0.08    0.17
  HS02004785HS02004788 CONDUIT     89.52     0  03:02      0.66    0.67    0.19
  HS02004777HS02004785 CONDUIT     89.64     0  03:01      0.38    0.11    0.33
  HS02004480HS02004478 CONDUIT    269.12     0  03:01      1.20    1.13    0.32
  HS02004479HS02004480 CONDUIT     44.17     0  03:02      0.23    0.04    0.40
  HS02004862HS02004870 CONDUIT     44.23     0  03:01      0.64    0.05    0.10
  HS02004848HS02004852 CONDUIT     20.44     0  03:01      0.44    0.02    0.07
  HS02004856HS02004862 CONDUIT     30.56     0  03:01      0.47    0.03    0.09
  HS02004852HS02004856 CONDUIT     20.26     0  03:01      0.24    0.02    0.12
  HS02004802HS02004478 CONDUIT    106.59     0  03:02      0.45    0.09    0.35
  HS02004478WS02006287 CONDUIT    375.26     0  03:01      1.68    0.11    0.25
  HS02004817HS02004807 CONDUIT     82.18     0  03:01      0.19    0.05    0.62
  HS02004807HS02004802 CONDUIT    106.49     0  03:01      0.38    0.20    0.40
  YS02001759YS02001757 CONDUIT    674.62     0  02:56      0.86    0.48    1.00
  YS02001762YS02001759 CONDUIT    342.64     0  02:56      0.44    0.39    1.00
  YS02001765YS02001762 CONDUIT    342.57     0  02:56      0.44    0.32    1.00
  YS02001770YS02001767 CONDUIT    342.01     0  02:56      0.44    1.35    1.00
  YS02001774YS02001770 CONDUIT    211.78     0  03:39      0.27    0.14    1.00
  YS02001779YS02001774 CONDUIT    211.85     0  03:39      0.27    0.11    1.00
  YS02001649YS02001757 CONDUIT    950.88     0  02:51      1.21    0.58    1.00
  YS02001767YS02001765 CONDUIT    342.49     0  02:56      0.44    0.43    1.00
  YS02006561YS02001783 CONDUIT    994.81     0  02:53      2.24    0.52    1.00
  YS02001783YS02001784 CONDUIT    994.77     0  02:53      1.98    1.37    1.00
  YS02001784YS02001785 CONDUIT    995.63     0  02:53      2.02    2.32    1.00
  YS02001788YS02001790 CONDUIT    973.90     0  02:52      2.51    0.72    1.00
  YS02001790YS02001791 CONDUIT   1013.41     0  02:52      3.11    1.10    1.00
  YS02001791YS02001793 CONDUIT    965.51     0  03:00      6.04    0.41    1.00
  YS02001910YS02001907 CONDUIT    528.03     0  02:59      0.67    0.30    1.00
  YS02001786YS02001788 CONDUIT    977.95     0  02:53      2.34    1.88    1.00
  YS02001915YS02001910 CONDUIT    528.17     0  02:59      0.67    0.26    1.00
  YS02001918YS02001915 CONDUIT    273.74     0  02:59      0.44    0.15    1.00
  YS02001923YS02001920 CONDUIT    270.61     0  02:59      0.68    0.12    1.00
  YS02001926YS02001923 CONDUIT    304.69     0  02:58      0.79    0.44    0.95
  YS02001929YS02001926 CONDUIT    288.59     0  02:59      0.85    0.14    0.87
  YS02001920YS02001918 CONDUIT    273.58     0  02:59      0.67    0.26    1.00
  YS02001629YS02163301 CONDUIT    213.21     0  02:50      0.27    0.26    1.00
  YS02001619YS02001622 CONDUIT    257.47     0  03:01      0.61    0.38    1.00
  YS02001622YS02001625 CONDUIT    257.34     0  03:01      0.33    0.14    1.00
  YS02001625YS02001629 CONDUIT    212.97     0  02:50      0.27    0.10    1.00
  YS02163301YS02001633 CONDUIT    213.35     0  02:50      0.27    0.20    1.00
  YS02163601YS02164001 CONDUIT    449.29     0  02:50      0.57    0.40    1.00
  YS02164001YS02001641 CONDUIT    448.92     0  02:50      0.57    0.61    1.00
  YS02001641YS02001644 CONDUIT    448.98     0  02:50      0.57    1.45    1.00
  YS02001647YS02001649 CONDUIT    680.56     0  02:50      0.87    0.36    1.00
  YS02006553YS02006556 CONDUIT    668.28     0  03:16      0.85    0.57    1.00
  YS02006556YS02006558 CONDUIT    668.47     0  03:16      0.85    0.53    1.00
  YSB6556YSB1171       CONDUIT     24.81     0  03:03      0.09    0.03    0.67
  YS02001907YS02006553 CONDUIT    668.00     0  03:16      0.74    0.79    1.00
  YS02006558YS02006561 CONDUIT   1008.04     0  02:54      3.64    2.23    1.00
  YS02001633YS02163601 CONDUIT    449.04     0  02:50      0.57    0.47    1.00
  YS02001644YS02001647 CONDUIT    680.86     0  02:50      0.87    0.40    1.00
  YS02001745YS02001748 CONDUIT    596.17     0  02:44      1.48    0.23    0.93
  YS02001748YS02001751 CONDUIT    311.68     0  03:01      1.05    0.16    1.00
  YS02001751YS02001754 CONDUIT    311.72     0  03:01      0.88    0.15    1.00
  YS02001754YS02001757 CONDUIT    311.95     0  03:01      0.40    0.13    1.00
  YS02001882YS02001884 CONDUIT     11.48     0  02:28      0.09    0.01    1.00
  YS02001884YS02001887 CONDUIT     20.10     0  03:50      0.05    0.03    1.00
  YS02001890YS02001895 CONDUIT    453.44     0  03:00      0.58    0.21    1.00
  YS02001895YS02001898 CONDUIT    453.51     0  03:01      0.58    0.79    1.00
  YS02001898YS02001901 CONDUIT    453.61     0  03:01      0.58    0.29    1.00
  YS02001901YS02001904 CONDUIT    453.52     0  03:01      0.58    0.70    1.00
  YS02001904YS02001907 CONDUIT    453.68     0  03:01      0.58    0.16    1.00
  YS02001887YS02001890 CONDUIT    453.43     0  03:00      0.58    0.78    1.00
  YS02001652YS02001649 CONDUIT    378.28     0  03:01      0.50    0.19    1.00
  YS02001655YS02001652 CONDUIT    377.22     0  03:01      0.93    0.18    1.00
  YS02001658YS02001655 CONDUIT    377.01     0  03:01      1.21    0.16    1.00
  YS02001661YS02001658 CONDUIT    472.99     0  02:43      1.56    0.19    1.00
  YS02001664YS02001661 CONDUIT    699.65     0  02:55      1.63    0.22    0.71
  YSB1154YSB6556       CONDUIT     24.91     0  03:01      0.18    0.04    0.56
  YSB1174YSB1171       CONDUIT     18.78     0  03:01      0.07    0.03    0.68
  YSB1171HS02004479    CONDUIT     42.82     0  03:02      0.54    0.03    0.53
  HS02004881HS02006253 CONDUIT     79.15     0  03:01      2.19    0.02    0.29
  YS02001793JiankangQianchi CONDUIT    965.60     0  03:01     14.37    0.08    1.00
  YS02001757CaochengTiaoxuchi CONDUIT   1808.01     0  02:52      2.49    0.79    1.00
  WSF200WS02003060     CONDUIT    625.39     0  02:46      1.89    0.14    0.37
  1                    CONDUIT   1031.33     0  02:49      3.35    0.36    0.41
  2                    CONDUIT    206.05     0  02:30      5.88    0.49    0.50
  3                    CONDUIT    532.47     0  02:30      9.89    0.85    0.71
  4                    CONDUIT      0.00     0  00:00      0.00    0.00    0.00
  CC-Pump-1            PUMP       200.00     0  02:10              1.00
  CC-Pump-2            PUMP       200.00     0  02:10              1.00
  JK-Pump-1            PUMP       300.00     0  02:07              1.00
  JK-Pump-2            PUMP       300.00     0  00:20              1.00
  XR-Pump-1            PUMP        95.00     0  00:00              1.00
  XR-Pump-2            PUMP        95.00     0  00:30              1.00
  XR-Pump-3            PUMP        95.00     0  00:20              1.00
  XR-Pump-4            PUMP        95.00     0  00:00              1.00
  
  
  ***************************
  Flow Classification Summary
  ***************************
  
  -------------------------------------------------------------------------------------
                      Adjusted    ---------- Fraction of Time in Flow Class ---------- 
                       /Actual         Up    Down  Sub   Sup   Up    Down  Norm  Inlet 
  Conduit               Length    Dry  Dry   Dry   Crit  Crit  Crit  Crit  Ltd   Ctrl  
  -------------------------------------------------------------------------------------
  WS02003066WSF200        1.00   0.04  0.00  0.00  0.00  0.96  0.00  0.00  0.64  0.00
  WS02006287WS02006284    1.00   0.03  0.01  0.00  0.57  0.39  0.00  0.00  0.65  0.00
  WS02006284WS02006280    1.00   0.04  0.00  0.00  0.00  0.00  0.00  0.96  0.00  0.00
  WS02006280WS02006229    1.00   0.04  0.00  0.00  0.00  0.00  0.00  0.96  0.00  0.00
  WS02006229WS02006228    1.00   0.00  0.00  0.00  1.00  0.00  0.00  0.00  0.00  0.00
  WS02006256WS02006235    1.00   0.00  0.00  0.00  1.00  0.00  0.00  0.00  0.00  0.00
  WS02006253WS02006251    1.00   0.02  0.01  0.00  0.96  0.00  0.00  0.00  0.00  0.00
  WS02006252WS02006251    1.00   0.06  0.00  0.00  0.00  0.00  0.94  0.00  0.00  0.00
  WS02006251WS02006249    1.00   0.00  0.00  0.00  1.00  0.00  0.00  0.00  0.23  0.00
  WS02006249WS02006248    1.00   0.00  0.00  0.00  0.93  0.00  0.07  0.00  0.00  0.00
  WS02006248WS02006247    1.00   0.00  0.00  0.00  0.98  0.00  0.00  0.02  0.11  0.00
  WS02006247WS02006245    1.00   0.00  0.00  0.00  0.98  0.00  0.00  0.01  0.00  0.00
  WS02006245WS02006243    1.00   0.01  0.00  0.00  0.97  0.00  0.00  0.03  0.01  0.00
  WS02006243WS02006242    1.00   0.01  0.00  0.00  0.99  0.00  0.00  0.00  0.17  0.00
  WS02006242WS02006240    1.00   0.00  0.00  0.00  1.00  0.00  0.00  0.00  0.00  0.00
  WS02006240WS02006239    1.00   0.00  0.00  0.00  0.97  0.00  0.00  0.02  0.01  0.00
  WS02006239WS02006238    1.00   0.00  0.00  0.00  1.00  0.00  0.00  0.00  0.00  0.00
  WS02006238WS02006235    1.00   0.00  0.00  0.00  1.00  0.00  0.00  0.00  0.00  0.00
  WS02006235WS02006234    1.00   0.00  0.00  0.00  0.97  0.00  0.02  0.00  0.00  0.00
  WS02006234WS02006232    1.00   0.00  0.00  0.00  1.00  0.00  0.00  0.00  0.00  0.00
  WS02006232WS02006231    1.00   0.00  0.00  0.00  0.99  0.00  0.00  0.00  0.00  0.00
  WS02006231WS02006230    1.00   0.00  0.00  0.00  0.89  0.00  0.11  0.00  0.00  0.00
  WS02006230WS02006229    1.00   0.00  0.00  0.00  0.99  0.00  0.00  0.01  0.01  0.00
  WS02006228WS02006109    1.00   0.00  0.00  0.00  1.00  0.00  0.00  0.00  0.00  0.00
  WS02006116WS02004401    1.00   0.02  0.00  0.00  0.98  0.00  0.00  0.00  0.00  0.00
  WS02006115WS02006116    1.00   0.02  0.00  0.00  0.97  0.00  0.00  0.00  0.00  0.00
  WS02006113WS02006111    1.00   0.01  0.00  0.00  0.00  0.99  0.00  0.00  0.08  0.00
  WS02006112WS02006115    1.00   0.01  0.01  0.00  0.98  0.00  0.00  0.00  0.00  0.00
  WS02006111WS02006112    1.00   0.01  0.00  0.00  0.98  0.00  0.00  0.00  0.91  0.00
  WS02006110WS02006113    1.00   0.00  0.01  0.00  0.99  0.00  0.00  0.00  0.00  0.00
  WS02006109WS02006110    1.00   0.00  0.00  0.00  1.00  0.00  0.00  0.00  0.00  0.00
  WS02004411WS02004412    1.00   0.03  0.00  0.00  0.97  0.00  0.00  0.00  0.00  0.00
  WS02004401WS02004402    1.00   0.02  0.00  0.00  0.98  0.00  0.00  0.00  0.00  0.00
  WS02004413WS02003067    1.00   0.03  0.01  0.00  0.00  0.00  0.96  0.00  0.00  0.00
  WS02004412WS02004413    1.00   0.03  0.00  0.00  0.97  0.00  0.00  0.00  0.02  0.00
  WS02004410WS02004411    1.00   0.03  0.00  0.00  0.97  0.00  0.00  0.00  0.02  0.00
  WS02004409WS02004410    1.00   0.03  0.00  0.00  0.97  0.00  0.00  0.00  0.03  0.00
  WS02004407WS02004409    1.00   0.03  0.00  0.00  0.97  0.00  0.00  0.00  0.90  0.00
  WS02004406WS02004407    1.00   0.00  0.03  0.00  0.97  0.00  0.00  0.00  0.00  0.00
  WS02004405WS02004406    1.00   0.00  0.00  0.00  1.00  0.00  0.00  0.00  0.03  0.00
  WS02004404WS02004405    1.00   0.00  0.00  0.00  1.00  0.00  0.00  0.00  0.00  0.00
  WS02004403WS02004404    1.00   0.00  0.02  0.00  0.98  0.00  0.00  0.00  0.00  0.00
  WS02004402WS02004403    1.00   0.02  0.00  0.00  0.98  0.00  0.00  0.00  0.00  0.00
  WS02004139WS02001211    1.00   0.00  0.00  0.00  1.00  0.00  0.00  0.00  0.00  0.00
  WS02004138WS02004139    1.00   0.00  0.00  0.00  1.00  0.00  0.00  0.00  1.00  0.00
  WS02003067WS02003066    1.00   0.04  0.00  0.00  0.96  0.00  0.00  0.00  0.00  0.00
  WS02001213WS02003059    1.00   0.00  0.00  0.00  1.00  0.00  0.00  0.00  0.00  0.00
  WS02001212WS02001213    1.00   0.00  0.00  0.00  0.92  0.00  0.08  0.00  0.00  0.00
  WS02001211WS02001212    1.00   0.00  0.00  0.00  1.00  0.00  0.00  0.00  0.00  0.00
  WS02003072WS02003073    1.00   0.00  0.00  0.00  0.00  0.00  0.00  1.00  0.00  0.00
  WS02003069WS02003072    1.00   0.00  0.00  0.00  1.00  0.00  0.00  0.00  0.20  0.00
  WS02003060WS02003069    1.00   0.00  0.00  0.00  1.00  0.00  0.00  0.00  0.09  0.00
  WS02003059WS02003060    1.00   0.00  0.00  0.00  1.00  0.00  0.00  0.00  0.01  0.00
  HS02004901HS02004770    1.00   0.04  0.00  0.00  0.96  0.00  0.00  0.00  0.00  0.00
  HS02004876HS02004881    1.00   0.00  0.00  0.00  0.91  0.09  0.00  0.00  0.00  0.00
  HS02004870HS02004876    1.00   0.00  0.00  0.00  1.00  0.00  0.00  0.00  0.95  0.00
  HS02004842HS02004848    1.00   0.00  0.04  0.00  0.96  0.00  0.00  0.00  0.58  0.00
  HS02004837HS02004842    1.00   0.00  0.00  0.00  1.00  0.00  0.00  0.00  0.11  0.00
  HS02004830HS02004837    1.00   0.00  0.00  0.00  1.00  0.00  0.00  0.00  0.99  0.00
  HS02004824HS02004830    1.00   0.00  0.00  0.00  1.00  0.00  0.00  0.00  0.00  0.00
  HS02004817HS02004824    1.00   0.00  0.00  0.00  1.00  0.00  0.00  0.00  1.00  0.00
  HS02004770HS02004777    1.00   0.00  0.04  0.00  0.96  0.00  0.00  0.00  0.03  0.00
  HS02004799HS02004480    1.00   0.00  0.01  0.00  0.96  0.00  0.03  0.00  0.00  0.00
  HS02004792HS02004799    1.00   0.00  0.00  0.00  1.00  0.00  0.00  0.00  0.98  0.00
  HS02004788HS02004792    1.00   0.00  0.00  0.00  1.00  0.00  0.00  0.00  0.98  0.00
  HS02004785HS02004788    1.00   0.00  0.00  0.00  1.00  0.00  0.00  0.00  0.00  0.00
  HS02004777HS02004785    1.00   0.00  0.00  0.00  1.00  0.00  0.00  0.00  0.14  0.00
  HS02004480HS02004478    1.00   0.04  0.00  0.00  0.65  0.00  0.00  0.31  0.00  0.00
  HS02004479HS02004480    1.00   0.01  0.00  0.00  0.99  0.00  0.00  0.00  0.12  0.00
  HS02004862HS02004870    1.00   0.00  0.00  0.00  1.00  0.00  0.00  0.00  0.05  0.00
  HS02004848HS02004852    1.00   0.04  0.00  0.00  0.96  0.00  0.00  0.00  0.61  0.00
  HS02004856HS02004862    1.00   0.00  0.05  0.00  0.95  0.00  0.00  0.00  0.80  0.00
  HS02004852HS02004856    1.00   0.04  0.00  0.00  0.96  0.00  0.00  0.00  0.85  0.00
  HS02004802HS02004478    1.00   0.04  0.00  0.00  0.96  0.00  0.00  0.00  0.03  0.00
  HS02004478WS02006287    1.00   0.04  0.00  0.00  0.71  0.24  0.00  0.00  0.66  0.00
  HS02004817HS02004807    1.00   0.00  0.04  0.00  0.96  0.00  0.00  0.00  0.01  0.00
  HS02004807HS02004802    1.00   0.04  0.00  0.00  0.96  0.00  0.00  0.00  0.00  0.00
  YS02001759YS02001757    1.00   0.00  0.00  0.00  1.00  0.00  0.00  0.00  0.16  0.00
  YS02001762YS02001759    1.00   0.00  0.00  0.00  1.00  0.00  0.00  0.00  0.04  0.00
  YS02001765YS02001762    1.00   0.00  0.00  0.00  1.00  0.00  0.00  0.00  0.16  0.00
  YS02001770YS02001767    1.00   0.00  0.00  0.00  1.00  0.00  0.00  0.00  0.00  0.00
  YS02001774YS02001770    1.00   0.00  0.04  0.00  0.96  0.00  0.00  0.00  0.04  0.00
  YS02001779YS02001774    1.00   0.00  0.00  0.00  1.00  0.00  0.00  0.00  0.21  0.00
  YS02001649YS02001757    1.00   0.00  0.00  0.00  1.00  0.00  0.00  0.00  0.17  0.00
  YS02001767YS02001765    1.00   0.00  0.00  0.00  1.00  0.00  0.00  0.00  0.00  0.00
  YS02006561YS02001783    1.00   0.05  0.00  0.00  0.31  0.64  0.00  0.00  0.53  0.00
  YS02001783YS02001784    1.00   0.00  0.05  0.00  0.95  0.00  0.00  0.00  0.01  0.00
  YS02001784YS02001785    1.00   0.00  0.00  0.00  1.00  0.00  0.00  0.00  0.20  0.00
  YS02001788YS02001790    1.00   0.00  0.00  0.00  0.35  0.65  0.00  0.00  0.50  0.00
  YS02001790YS02001791    1.00   0.00  0.00  0.00  0.31  0.69  0.00  0.00  0.49  0.00
  YS02001791YS02001793    1.00   0.00  0.00  0.00  0.32  0.68  0.00  0.00  0.01  0.00
  YS02001910YS02001907    1.00   0.00  0.00  0.00  1.00  0.00  0.00  0.00  0.13  0.00
  YS02001786YS02001788    1.00   0.00  0.00  0.00  0.32  0.68  0.00  0.00  0.00  0.00
  YS02001915YS02001910    1.00   0.00  0.00  0.00  0.99  0.01  0.00  0.00  0.18  0.00
  YS02001918YS02001915    1.00   0.00  0.00  0.00  1.00  0.00  0.00  0.00  0.58  0.00
  YS02001923YS02001920    1.00   0.00  0.00  0.00  1.00  0.00  0.00  0.00  0.86  0.00
  YS02001926YS02001923    1.00   0.00  0.03  0.00  0.13  0.00  0.84  0.00  0.00  0.00
  YS02001929YS02001926    1.00   0.00  0.04  0.00  0.96  0.00  0.00  0.00  0.80  0.00
  YS02001920YS02001918    1.00   0.00  0.00  0.00  1.00  0.00  0.00  0.00  0.00  0.00
  YS02001629YS02163301    1.00   0.04  0.00  0.00  0.96  0.00  0.00  0.00  0.00  0.00
  YS02001619YS02001622    1.00   0.04  0.00  0.00  0.96  0.00  0.00  0.00  0.00  0.00
  YS02001622YS02001625    1.00   0.04  0.00  0.00  0.96  0.00  0.00  0.00  0.07  0.00
  YS02001625YS02001629    1.00   0.04  0.01  0.00  0.94  0.00  0.01  0.00  0.00  0.00
  YS02163301YS02001633    1.00   0.00  0.04  0.00  0.96  0.00  0.00  0.00  0.00  0.00
  YS02163601YS02164001    1.00   0.00  0.03  0.00  0.97  0.00  0.00  0.00  0.00  0.00
  YS02164001YS02001641    1.00   0.00  0.03  0.00  0.97  0.00  0.00  0.00  0.06  0.00
  YS02001641YS02001644    1.00   0.00  0.00  0.00  1.00  0.00  0.00  0.00  0.00  0.00
  YS02001647YS02001649    1.00   0.00  0.05  0.00  0.95  0.00  0.00  0.00  0.01  0.00
  YS02006553YS02006556    1.00   0.00  0.00  0.00  1.00  0.00  0.00  0.00  0.03  0.00
  YS02006556YS02006558    1.00   0.00  0.00  0.00  1.00  0.00  0.00  0.00  0.00  0.00
  YSB6556YSB1171          1.00   0.01  0.02  0.00  0.97  0.00  0.00  0.00  0.00  0.00
  YS02001907YS02006553    1.00   0.00  0.00  0.00  1.00  0.00  0.00  0.00  0.00  0.00
  YS02006558YS02006561    1.00   0.05  0.00  0.00  0.15  0.80  0.00  0.00  0.47  0.00
  YS02001633YS02163601    1.00   0.00  0.00  0.00  1.00  0.00  0.00  0.00  0.16  0.00
  YS02001644YS02001647    1.00   0.00  0.05  0.00  0.95  0.00  0.00  0.00  0.00  0.00
  YS02001745YS02001748    1.00   0.00  0.00  0.00  0.89  0.01  0.00  0.09  0.06  0.00
  YS02001748YS02001751    1.00   0.00  0.00  0.00  0.98  0.02  0.00  0.00  0.15  0.00
  YS02001751YS02001754    1.00   0.00  0.00  0.00  0.95  0.00  0.00  0.05  0.02  0.00
  YS02001754YS02001757    1.00   0.00  0.00  0.00  1.00  0.00  0.00  0.00  0.20  0.00
  YS02001882YS02001884    1.00   0.04  0.00  0.00  0.96  0.00  0.00  0.00  0.00  0.00
  YS02001884YS02001887    1.00   0.02  0.01  0.00  0.97  0.00  0.00  0.00  0.00  0.00
  YS02001890YS02001895    1.00   0.00  0.04  0.00  0.96  0.00  0.00  0.00  0.00  0.00
  YS02001895YS02001898    1.00   0.04  0.00  0.00  0.95  0.00  0.01  0.00  0.00  0.00
  YS02001898YS02001901    1.00   0.04  0.00  0.00  0.96  0.00  0.00  0.00  0.02  0.00
  YS02001901YS02001904    1.00   0.04  0.00  0.00  0.96  0.00  0.00  0.00  0.00  0.00
  YS02001904YS02001907    1.00   0.00  0.04  0.00  0.96  0.00  0.00  0.00  0.00  0.00
  YS02001887YS02001890    1.00   0.00  0.00  0.00  1.00  0.00  0.00  0.00  0.00  0.00
  YS02001652YS02001649    1.00   0.00  0.00  0.00  1.00  0.00  0.00  0.00  0.18  0.00
  YS02001655YS02001652    1.00   0.00  0.00  0.00  0.95  0.00  0.00  0.05  0.02  0.00
  YS02001658YS02001655    1.00   0.00  0.04  0.00  0.94  0.02  0.00  0.00  0.11  0.00
  YS02001661YS02001658    1.00   0.04  0.00  0.00  0.89  0.07  0.00  0.00  0.07  0.00
  YS02001664YS02001661    1.00   0.04  0.00  0.00  0.85  0.11  0.00  0.00  0.22  0.00
  YSB1154YSB6556          1.00   0.03  0.00  0.00  0.97  0.00  0.00  0.00  0.02  0.00
  YSB1174YSB1171          1.00   0.02  0.01  0.00  0.97  0.00  0.00  0.00  0.00  0.00
  YSB1171HS02004479       1.00   0.01  0.00  0.00  0.98  0.00  0.00  0.01  0.11  0.00
  HS02004881HS02006253    1.00   0.02  0.00  0.00  0.84  0.02  0.00  0.12  0.69  0.00
  YS02001793JiankangQianchi    1.00   0.00  0.00  0.00  0.51  0.49  0.00  0.00  0.20  0.00
  YS02001757CaochengTiaoxuchi    1.00   0.00  0.06  0.00  0.91  0.03  0.00  0.00  0.00  0.00
  WSF200WS02003060        1.00   0.00  0.04  0.00  0.71  0.25  0.00  0.00  0.10  0.00
  1                       1.00   0.00  0.00  0.00  0.00  1.00  0.00  0.00  0.29  0.00
  2                       1.00   0.40  0.00  0.00  0.00  0.60  0.00  0.00  0.13  0.00
  3                       1.00   0.06  0.00  0.00  0.00  0.94  0.00  0.00  0.20  0.00
  4                       1.00   1.00  0.00  0.00  0.00  0.00  0.00  0.00  0.00  0.00
  
  
  *************************
  Conduit Surcharge Summary
  *************************
  
  ----------------------------------------------------------------------------
                                                           Hours        Hours 
                         --------- Hours Full --------   Above Full   Capacity
  Conduit                Both Ends  Upstream  Dnstream   Normal Flow   Limited
  ----------------------------------------------------------------------------
  WS02006229WS02006228        4.08      4.40      4.08      5.72         4.08
  WS02006256WS02006235        6.13      6.14      7.65      2.89         0.01
  WS02006253WS02006251        0.01      0.01      0.35      0.01         0.01
  WS02006252WS02006251        2.42      2.42      3.77      3.42         0.01
  WS02006251WS02006249        0.01      0.01      0.01      2.50         0.01
  WS02006249WS02006248        0.01      0.01      0.01      5.23         0.01
  WS02006248WS02006247        0.01      0.01      0.05      0.01         0.01
  WS02006247WS02006245        0.01      0.29      0.01      5.40         0.01
  WS02006245WS02006243        0.14      0.14      0.55      0.03         0.01
  WS02006243WS02006242        0.64      0.64      2.85      0.01         0.01
  WS02006242WS02006240        0.89      0.89      3.39      3.71         0.01
  WS02006240WS02006239        0.98      0.98      1.19      0.01         0.01
  WS02006239WS02006238        3.33      3.33      3.59      0.01         0.02
  WS02006238WS02006235        3.42      3.42      4.04      0.01         0.01
  WS02006235WS02006234        1.01      1.01      3.15      6.19         0.01
  WS02006234WS02006232        1.24      1.24      4.36      0.01         0.01
  WS02006232WS02006231        0.80      0.80      4.36      0.01         0.01
  WS02006231WS02006230        0.52      0.52      0.84      6.18         0.01
  WS02006230WS02006229        5.16      5.62      5.16      6.29         5.16
  WS02006228WS02006109        4.23      4.87      4.23      5.90         4.23
  WS02006112WS02006115        0.01      0.01      1.25      0.01         0.01
  WS02006111WS02006112        0.01      0.01      5.69      0.01         0.01
  WS02006110WS02006113        0.01      0.01      4.67      0.01         0.01
  WS02006109WS02006110        1.13      1.13      4.87      1.14         0.01
  WS02004406WS02004407        0.01      0.01      0.21      0.01         0.01
  WS02004405WS02004406        0.21      0.43      0.21      1.20         0.21
  WS02004404WS02004405        0.43      0.68      0.43      6.01         0.43
  WS02004403WS02004404        0.01      0.01      0.68      0.01         0.01
  WS02003072WS02003073        0.01      0.01      0.01      5.73         0.01
  HS02004480HS02004478        0.01      0.01      0.01      0.25         0.01
  YS02001759YS02001757        5.66      5.66      5.74      0.01         0.01
  YS02001762YS02001759        5.64      5.64      5.66      0.01         0.01
  YS02001765YS02001762        5.61      5.61      5.64      0.01         0.01
  YS02001770YS02001767        5.58      5.58      5.58      0.32         0.92
  YS02001774YS02001770        5.46      5.46      5.63      0.01         0.01
  YS02001779YS02001774        5.36      5.36      5.63      0.01         0.01
  YS02001649YS02001757        5.64      5.64      5.74      0.01         0.01
  YS02001767YS02001765        5.58      5.58      5.61      0.01         0.01
  YS02006561YS02001783        0.56      0.56      1.12      0.01         0.01
  YS02001783YS02001784        1.09      1.12      1.15      1.15         0.89
  YS02001784YS02001785        1.02      1.15      1.02      2.10         1.02
  YS02001788YS02001790        1.00      1.00      1.45      0.01         0.01
  YS02001790YS02001791        1.45      1.45      1.59      0.45         0.41
  YS02001791YS02001793        1.59      1.59      1.82      0.01         0.01
  YS02001910YS02001907        0.96      0.96      1.48      0.01         0.01
  YS02001786YS02001788        1.00      1.02      1.00      1.69         1.00
  YS02001915YS02001910        0.69      0.69      0.96      0.01         0.01
  YS02001918YS02001915        0.44      0.44      0.69      0.01         0.01
  YS02001923YS02001920        0.20      0.20      0.48      0.01         0.01
  YS02001926YS02001923        0.01      0.01      0.01      0.01         0.01
  YS02001929YS02001926        0.01      0.01      0.01      0.01         0.01
  YS02001920YS02001918        0.44      0.44      0.48      0.01         0.01
  YS02001629YS02163301        5.49      5.49      5.58      0.01         0.01
  YS02001619YS02001622        5.19      5.19      5.22      0.01         0.01
  YS02001622YS02001625        5.22      5.22      5.39      0.01         0.01
  YS02001625YS02001629        5.19      5.19      5.39      0.01         0.01
  YS02163301YS02001633        5.58      5.58      5.61      0.01         0.01
  YS02163601YS02164001        5.61      5.61      5.64      0.01         0.01
  YS02164001YS02001641        5.61      5.61      5.62      0.01         0.01
  YS02001641YS02001644        5.62      5.62      5.62      1.20         1.47
  YS02001647YS02001649        5.39      5.39      5.64      0.01         0.01
  YS02006553YS02006556        1.20      1.20      1.54      0.01         0.01
  YS02006556YS02006558        1.36      1.36      1.62      0.01         0.01
  YS02001907YS02006553        2.09      2.09      2.30      0.01         0.01
  YS02006558YS02006561        0.73      1.15      0.73      1.94         0.73
  YS02001633YS02163601        5.60      5.60      5.64      0.01         0.01
  YS02001644YS02001647        5.39      5.39      5.62      0.01         0.01
  YS02001745YS02001748        0.01      0.01      4.37      0.01         0.01
  YS02001748YS02001751        5.07      5.07      5.15      0.01         0.01
  YS02001751YS02001754        5.15      5.15      5.37      0.01         0.01
  YS02001754YS02001757        5.39      5.39      5.74      0.01         0.01
  YS02001882YS02001884        0.72      0.72      0.76      0.01         0.01
  YS02001884YS02001887        0.83      0.83      0.87      0.01         0.01
  YS02001890YS02001895        0.68      0.68      0.98      0.01         0.01
  YS02001895YS02001898        0.66      0.66      0.68      0.01         0.01
  YS02001898YS02001901        0.68      0.68      0.82      0.01         0.01
  YS02001901YS02001904        0.79      0.79      0.82      0.01         0.01
  YS02001904YS02001907        0.79      0.79      1.57      0.01         0.01
  YS02001887YS02001890        0.91      0.91      0.94      0.01         0.01
  YS02001652YS02001649        5.40      5.40      5.64      0.01         0.01
  YS02001655YS02001652        5.20      5.20      5.39      0.01         0.01
  YS02001658YS02001655        4.42      4.42      5.20      0.01         0.01
  YS02001661YS02001658        0.21      0.21      4.42      0.01         0.01
  YS02001664YS02001661        0.01      0.01      0.97      0.01         0.01
  YS02001793JiankangQianchi        1.80      1.80      2.84      0.01         0.01
  YS02001757CaochengTiaoxuchi        4.88      4.88      5.74      0.01         0.01
  
  
  ***************
  Pumping Summary
  ***************
  
  ---------------------------------------------------------------------------------------------------------
                                                  Min       Avg       Max     Total     Power    % Time Off
                        Percent   Number of      Flow      Flow      Flow    Volume     Usage    Pump Curve
  Pump                 Utilized   Start-Ups       LPS       LPS       LPS  10^6 ltr     Kw-hr    Low   High
  ---------------------------------------------------------------------------------------------------------
  CC-Pump-1               69.43           3      0.00    166.43    200.00     3.253      5.44    0.0   12.5
  CC-Pump-2               65.95           5      0.00    147.59    200.00     2.820      4.92    0.0   11.1
  JK-Pump-1               91.48           4      0.00    202.94    300.00     4.178     54.97    0.0    0.0
  JK-Pump-2               95.73           3      0.00    213.94    300.00     4.613     57.69    0.0    0.0
  XR-Pump-1               89.35           7      0.00     70.22     95.00     1.767     13.58    0.0    0.0
  XR-Pump-2               76.59           5      0.00     75.35     95.00     1.596     13.97    0.0    0.0
  XR-Pump-3               89.34           5      0.00     78.03     95.00     1.938     15.69    0.0    0.0
  XR-Pump-4               91.47           8      0.00     69.51     95.00     1.824     14.82    0.0    0.0
  

  Analysis begun on:  Fri Jan  7 11:10:10 2022
  Analysis ended on:  Fri Jan  7 11:10:15 2022
  Total elapsed time: 00:00:05