
  EPA STORM WATER MANAGEMENT MODEL - VERSION 5.1 (Build 5.3.0.dev0)
  --------------------------------------------------------------

  WARNING 04: minimum elevation drop used for Conduit WS02004404WS02004405
  WARNING 03: negative offset ignored for Link YS02001904YS02001907
  
  *********************************************************
  NOTE: The summary statistics displayed in this report are
  based on results found at every computational time step,  
  not just on results from each reporting time step.
  *********************************************************
  
  ****************
  Analysis Options
  ****************
  Flow Units ............... LPS
  Process Models:
    Rainfall/Runoff ........ YES
    RDII ................... NO
    Snowmelt ............... NO
    Groundwater ............ NO
    Flow Routing ........... YES
    Ponding Allowed ........ NO
    Water Quality .......... NO
  Infiltration Method ...... HORTON
  Flow Routing Method ...... DYNWAVE
  Surcharge Method ......... EXTRAN
  Starting Date ............ 08/28/2015 08:00:00
  Ending Date .............. 08/28/2015 15:50:00
  Antecedent Dry Days ...... 8.0
  Report Time Step ......... 00:01:00
  Wet Time Step ............ 00:01:00
  Dry Time Step ............ 00:01:00
  Routing Time Step ........ 5.00 sec
  Variable Time Step ....... YES
  Maximum Trials ........... 8
  Number of Threads ........ 4
  Head Tolerance ........... 0.001500 m
  
  
  **************************        Volume         Depth
  Runoff Quantity Continuity     hectare-m            mm
  **************************     ---------       -------
  Total Precipitation ......         6.144        13.452
  Evaporation Loss .........         0.000         0.000
  Infiltration Loss ........         1.572         3.442
  Surface Runoff ...........         3.480         7.619
  Final Storage ............         1.093         2.393
  Continuity Error (%) .....        -0.016
  
  
  **************************        Volume        Volume
  Flow Routing Continuity        hectare-m      10^6 ltr
  **************************     ---------     ---------
  Dry Weather Inflow .......         0.616         6.165
  Wet Weather Inflow .......         3.479        34.789
  Groundwater Inflow .......         0.000         0.000
  RDII Inflow ..............         0.000         0.000
  External Inflow ..........         0.102         1.024
  External Outflow .........         2.473        24.735
  Flooding Loss ............         1.321        13.208
  Evaporation Loss .........         0.000         0.000
  Exfiltration Loss ........         0.000         0.000
  Initial Stored Volume ....         0.076         0.761
  Final Stored Volume ......         0.609         6.094
  Continuity Error (%) .....        -3.041
  
  
  *************************
  Highest Continuity Errors
  *************************
  Node HS02004842 (15.27%)
  Node JK-storage (-11.68%)
  Node YS02001884 (11.00%)
  Node YSB1171 (2.79%)
  Node HS02004817 (2.78%)
  
  
  ***************************
  Time-Step Critical Elements
  ***************************
  Link 3 (60.42%)
  Link WS02006252WS02006251 (28.29%)
  Link WS02006238WS02006235 (3.45%)
  Link WS02006280WS02006229 (1.38%)
  Link 2 (1.22%)
  
  
  ********************************
  Highest Flow Instability Indexes
  ********************************
  Link YS02163601YS02164001 (43)
  Link YS02163301YS02001633 (42)
  Link YS02001619YS02001622 (42)
  Link YS02001629YS02163301 (41)
  Link YS02164001YS02001641 (39)
  
  
  *************************
  Routing Time Step Summary
  *************************
  Minimum Time Step           :     0.04 sec
  Average Time Step           :     0.77 sec
  Maximum Time Step           :     5.00 sec
  Percent in Steady State     :    -0.00
  Average Iterations per Step :     4.67
  Percent Not Converging      :    21.83
  
  
  ***************************
  Subcatchment Runoff Summary
  ***************************
  
  ------------------------------------------------------------------------------------------------------------------------------
                            Total      Total      Total      Total     Imperv       Perv      Total       Total     Peak  Runoff
                           Precip      Runon       Evap      Infil     Runoff     Runoff     Runoff      Runoff   Runoff   Coeff
  Subcatchment                 mm         mm         mm         mm         mm         mm         mm    10^6 ltr      LPS
  ------------------------------------------------------------------------------------------------------------------------------
  sub0                      13.45       0.00       0.00       0.89      11.25       0.05      11.30        0.01     3.67   0.840
  sub1                      13.45       0.00       0.00       1.45      10.71       0.03      10.74        0.07    24.31   0.799
  sub2                      13.45       0.00       0.00       4.95       7.56       0.02       7.58        0.07    22.93   0.564
  sub3                      13.45       0.00       0.00       4.96       7.52       0.02       7.54        0.17    51.30   0.560
  sub4                      13.45       0.00       0.00       1.46      10.54       0.02      10.56        0.22    61.94   0.785
  sub5                      13.45       0.00       0.00       0.91      11.19       0.03      11.22        0.13    43.21   0.834
  sub7                      13.45       0.00       0.00       1.17      10.98       0.04      11.03        0.04    13.69   0.820
  sub8                      13.45       0.00       0.00       1.17      10.97       0.04      11.01        0.07    25.15   0.819
  sub9                      13.45       0.00       0.00       1.17      10.97       0.04      11.01        0.05    18.81   0.818
  sub10                     13.45       0.00       0.00       1.04      11.08       0.03      11.11        0.12    42.29   0.826
  sub11                     13.45       0.00       0.00       1.04      11.10       0.04      11.14        0.13    46.68   0.828
  sub12                     13.45       0.00       0.00       1.69      10.51       0.06      10.58        0.09    35.94   0.786
  sub14                     13.45       0.00       0.00       1.17      10.97       0.04      11.01        0.10    37.02   0.818
  sub15                     13.45       0.00       0.00       4.00       8.43       0.04       8.47        0.15    51.03   0.630
  sub16                     13.45       0.00       0.00       4.38       8.09       0.06       8.15        0.09    32.58   0.606
  sub17                     13.45       0.00       0.00       4.25       8.21       0.06       8.27        0.07    26.73   0.615
  sub22                     13.45       0.00       0.00       5.74       6.88       0.04       6.92        0.44   159.06   0.514
  sub23                     13.45       0.00       0.00       4.93       7.60       0.05       7.65        0.36   133.95   0.569
  sub60                     13.45       0.00       0.00       1.61       8.73       0.00       8.74        2.65   387.96   0.649
  sub61                     13.45       0.00       0.00       2.28       8.88       0.00       8.88        2.74   483.52   0.660
  sub62                     13.45       0.00       0.00       1.07       9.65       0.00       9.66        2.97   496.42   0.718
  sub63                     13.45       0.00       0.00       3.90       7.77       0.00       7.77        2.35   446.68   0.578
  sub64                     13.45       0.00       0.00       2.01       8.38       0.00       8.38        2.55   368.35   0.623
  sub65                     13.45       0.00       0.00       1.75       8.52       0.00       8.52        2.62   373.60   0.634
  sub66                     13.45       0.00       0.00       3.90       7.19       0.00       7.19        2.21   337.96   0.535
  sub67                     13.45       0.00       0.00       1.07      10.19       0.01      10.19        3.15   622.58   0.758
  sub68                     13.45       0.00       0.00       1.88       9.34       0.01       9.34        2.87   531.38   0.694
  sub69                     13.45       0.00       0.00       2.01       9.68       0.01       9.69        2.26   503.32   0.720
  sub70                     13.45       9.89       0.00       7.67      12.93       0.26      13.20        3.02   423.72   0.565
  sub71                     13.45       0.00       0.00       1.07       9.40       0.00       9.40        2.22   347.35   0.699
  sub72                     13.45       0.00       0.00       0.94       7.49       0.00       7.50        1.53   163.23   0.557
  sub73                     13.45      12.84       0.00       8.67      14.26       0.27      14.53        3.41   375.92   0.552
  sub74                     13.45       0.00       0.00      10.09       2.88       0.00       2.89        1.15   273.25   0.215
  
  
  ******************
  Node Depth Summary
  ******************
  
  ---------------------------------------------------------------------------------
                                 Average  Maximum  Maximum  Time of Max    Reported
                                   Depth    Depth      HGL   Occurrence   Max Depth
  Node                 Type       Meters   Meters   Meters  days hr:min      Meters
  ---------------------------------------------------------------------------------
  WS02001211           JUNCTION     0.71     0.79     5.63     0  03:21        0.79
  WS02001212           JUNCTION     0.43     0.50     5.57     0  03:21        0.50
  WS02001213           JUNCTION     0.67     0.76     5.53     0  02:54        0.76
  WS02003069           JUNCTION     0.49     0.63     5.22     0  03:05        0.63
  WS02003072           JUNCTION     0.56     0.68     5.05     0  03:06        0.68
  WS02003073           JUNCTION     0.34     0.42     4.49     0  03:06        0.42
  WS02003060           JUNCTION     0.44     0.56     5.49     0  03:05        0.56
  WS02003066           JUNCTION     0.25     0.36     5.91     0  03:05        0.36
  WS02003059           JUNCTION     0.73     0.82     5.51     0  02:59        0.82
  WS02003067           JUNCTION     0.61     0.78     6.10     0  03:05        0.78
  WS02004401           JUNCTION     0.74     1.10     7.10     0  03:03        1.10
  WS02004402           JUNCTION     0.77     1.11     7.07     0  03:03        1.10
  WS02004403           JUNCTION     0.79     1.10     7.03     0  03:03        1.09
  WS02004404           JUNCTION     0.86     1.15     7.00     0  03:03        1.15
  WS02004406           JUNCTION     0.86     1.10     6.93     0  03:03        1.10
  WS02004409           JUNCTION     0.56     0.85     6.62     0  03:04        0.85
  WS02004410           JUNCTION     0.57     0.85     6.57     0  03:04        0.85
  WS02004411           JUNCTION     0.58     0.84     6.52     0  03:04        0.84
  WS02004412           JUNCTION     0.59     0.83     6.47     0  03:05        0.83
  WS02004413           JUNCTION     0.75     0.97     6.44     0  03:05        0.97
  WS02004405           JUNCTION     0.85     1.13     6.98     0  03:03        1.13
  WS02006109           JUNCTION     0.83     1.26     7.87     0  03:02        1.24
  WS02006110           JUNCTION     0.81     1.10     7.69     0  03:02        1.10
  WS02006111           JUNCTION     0.25     0.60     7.30     0  03:03        0.59
  WS02006112           JUNCTION     0.92     1.38     7.26     0  03:03        1.37
  WS02006113           JUNCTION     0.38     0.61     7.50     0  03:03        0.61
  WS02006115           JUNCTION     0.64     1.06     7.19     0  03:03        1.05
  WS02006116           JUNCTION     0.72     1.11     7.15     0  03:03        1.11
  WS02006230           JUNCTION     0.84     1.38     8.12     0  03:02        1.37
  WS02006231           JUNCTION     0.56     1.02     8.14     0  03:02        1.01
  WS02006232           JUNCTION     0.70     1.11     8.15     0  03:02        1.10
  WS02006234           JUNCTION     0.63     1.00     8.15     0  03:02        0.99
  WS02006235           JUNCTION     0.67     1.01     8.17     0  03:02        0.99
  WS02006238           JUNCTION     0.69     1.03     8.17     0  03:02        1.01
  WS02006240           JUNCTION     0.60     0.91     8.20     0  03:02        0.90
  WS02006242           JUNCTION     0.65     0.95     8.22     0  03:02        0.94
  WS02006243           JUNCTION     0.54     0.81     8.23     0  03:02        0.81
  WS02006245           JUNCTION     0.51     0.77     8.25     0  03:02        0.77
  WS02006247           JUNCTION     0.52     0.76     8.26     0  03:01        0.76
  WS02006248           JUNCTION     0.47     0.69     8.28     0  03:01        0.69
  WS02006249           JUNCTION     0.49     0.69     8.29     0  03:00        0.69
  WS02006239           JUNCTION     0.65     0.98     8.19     0  03:02        0.97
  WS02006251           JUNCTION     0.49     0.77     8.44     0  03:00        0.77
  WS02006252           JUNCTION     0.43     0.59     8.84     0  07:32        0.59
  WS02006253           JUNCTION     0.51     0.81     8.45     0  03:00        0.80
  WS02006256           JUNCTION     1.10     2.35     9.28     0  00:00        1.22
  WS02004138           JUNCTION     0.17     0.19     7.44     0  01:10        0.19
  WS02004407           JUNCTION     0.25     0.36     6.68     0  03:04        0.36
  WS02006228           JUNCTION     0.85     1.38     8.03     0  03:02        1.37
  WS02006229           JUNCTION     0.83     1.41     8.11     0  03:02        1.40
  WS02006280           JUNCTION     0.08     0.24     8.52     0  03:02        0.24
  WS02006284           JUNCTION     0.38     0.63     9.02     0  03:02        0.62
  WS02006287           JUNCTION     0.11     0.37     9.32     0  03:02        0.37
  WSF200               JUNCTION     0.25     0.39     5.63     0  03:05        0.39
  HS02004901           JUNCTION     0.14     0.35    10.17     0  03:01        0.35
  HS02004881           JUNCTION     0.01     0.05     9.08     0  03:01        0.05
  HS02004876           JUNCTION     0.05     0.15     9.18     0  03:01        0.15
  HS02004870           JUNCTION     0.02     0.09     9.37     0  03:01        0.09
  HS02004862           JUNCTION     0.02     0.10     9.49     0  03:01        0.10
  HS02004856           JUNCTION     0.08     0.15     9.57     0  03:01        0.15
  HS02004852           JUNCTION     0.01     0.07     9.58     0  03:02        0.07
  HS02004848           JUNCTION     0.01     0.06     9.67     0  03:01        0.06
  HS02004842           JUNCTION     0.34     0.40     9.67     0  03:01        0.40
  HS02004837           JUNCTION     0.03     0.09     9.67     0  03:01        0.09
  HS02004830           JUNCTION     0.04     0.10     9.57     0  03:01        0.10
  HS02004824           JUNCTION     0.03     0.11     9.51     0  03:02        0.11
  HS02004817           JUNCTION     0.45     0.67     9.52     0  03:02        0.67
  HS02004807           JUNCTION     0.14     0.34     9.51     0  03:02        0.34
  HS02004802           JUNCTION     0.17     0.38     9.50     0  03:02        0.38
  HS02004799           JUNCTION     0.13     0.43     9.65     0  03:01        0.43
  HS02004792           JUNCTION     0.04     0.20     9.72     0  03:01        0.19
  HS02004788           JUNCTION     0.03     0.14    10.04     0  03:02        0.14
  HS02004785           JUNCTION     0.05     0.23    10.13     0  03:02        0.23
  HS02004777           JUNCTION     0.16     0.37    10.17     0  03:01        0.37
  HS02004770           JUNCTION     0.13     0.34    10.17     0  03:01        0.34
  HS02004480           JUNCTION     0.09     0.35     9.59     0  03:01        0.35
  HS02004479           JUNCTION     0.13     0.39     9.60     0  03:01        0.39
  HS02004478           JUNCTION     0.07     0.26     9.48     0  03:01        0.26
  YS02001745           JUNCTION     0.70     0.89     8.40     0  03:22        0.88
  YS02001748           JUNCTION     1.08     1.86     8.94     0  02:46        1.33
  YS02001751           JUNCTION     1.27     1.79     8.66     0  02:45        1.54
  YS02001754           JUNCTION     1.52     1.86     8.47     0  02:46        1.81
  YS02001762           JUNCTION     1.72     2.04     8.44     0  03:06        2.03
  YS02001765           JUNCTION     1.68     1.98     8.43     0  03:00        1.97
  YS02001767           JUNCTION     1.64     1.94     8.43     0  03:00        1.93
  YS02001770           JUNCTION     1.63     1.92     8.41     0  03:00        1.91
  YS02001774           JUNCTION     1.70     1.98     8.40     0  03:26        1.97
  YS02001779           JUNCTION     1.45     1.68     8.37     0  02:41        1.68
  YS02001882           JUNCTION     0.60     1.65     8.37     0  02:51        1.63
  YS02001884           JUNCTION     0.69     1.75     8.36     0  02:51        1.72
  YS02001759           JUNCTION     1.76     2.07     8.44     0  03:15        2.07
  YS02001887           JUNCTION     0.77     1.81     8.35     0  02:51        1.80
  YS02001890           JUNCTION     0.80     1.81     8.32     0  02:51        1.81
  YS02001898           JUNCTION     0.57     1.57     8.31     0  02:51        1.56
  YS02001901           JUNCTION     0.68     1.68     8.29     0  02:51        1.67
  YS02001904           JUNCTION     0.66     1.64     8.27     0  02:51        1.63
  YS02001907           JUNCTION     0.99     1.96     8.25     0  02:51        1.96
  YS02001910           JUNCTION     0.78     1.80     8.30     0  02:52        1.77
  YS02001915           JUNCTION     0.58     1.62     8.34     0  02:52        1.59
  YS02001918           JUNCTION     0.32     1.35     8.42     0  02:50        1.27
  YS02001619           JUNCTION     1.24     1.61     8.54     0  02:41        1.61
  YS02001629           JUNCTION     1.59     1.85     8.40     0  02:42        1.84
  YS02001641           JUNCTION     1.69     1.94     8.37     0  02:56        1.93
  YS02001644           JUNCTION     1.69     1.92     8.35     0  02:49        1.92
  YS02001652           JUNCTION     1.54     2.16     8.76     0  02:55        2.04
  YS02001655           JUNCTION     1.30     2.20     9.05     0  02:41        1.98
  YS02001920           JUNCTION     0.42     1.41     8.42     0  02:52        1.34
  YS02001923           JUNCTION     0.25     1.19     8.45     0  02:52        1.10
  YS02001926           JUNCTION     0.30     0.98     8.43     0  02:52        0.95
  YS02001929           JUNCTION     0.17     0.76     8.45     0  02:52        0.75
  YS02001658           JUNCTION     1.03     2.30     9.44     0  02:41        1.86
  YS02001661           JUNCTION     0.81     2.46     9.86     0  02:55        1.76
  YS02001664           JUNCTION     0.35     0.57     8.49     0  04:28        0.56
  YS02001622           JUNCTION     1.26     1.62     8.52     0  02:42        1.59
  YS02001633           JUNCTION     1.68     1.95     8.40     0  02:44        1.94
  YS02001649           JUNCTION     1.73     2.05     8.44     0  02:52        2.05
  YS02001757           JUNCTION     1.85     2.17     8.43     0  03:20        2.16
  YS02001895           JUNCTION     0.56     1.57     8.31     0  02:51        1.56
  YS02001625           JUNCTION     1.54     1.78     8.38     0  02:41        1.78
  YS02163301           JUNCTION     1.62     1.90     8.42     0  02:44        1.88
  YS02163601           JUNCTION     1.73     1.99     8.39     0  02:53        1.99
  YS02164001           JUNCTION     1.67     1.92     8.38     0  06:44        1.91
  YS02001647           JUNCTION     1.52     1.81     8.42     0  02:57        1.79
  YSB1154              JUNCTION     0.27     0.54     9.60     0  03:01        0.54
  YSB6556              JUNCTION     0.16     0.43     9.60     0  03:02        0.43
  YSB1174              JUNCTION     0.22     0.49     9.60     0  03:01        0.49
  YSB1171              JUNCTION     0.42     0.69     9.60     0  03:01        0.69
  YS02006553           JUNCTION     0.99     1.97     8.25     0  03:00        1.97
  YS02006561           JUNCTION     0.35     1.13     7.79     0  02:51        1.12
  YS02006556           JUNCTION     0.96     1.93     8.24     0  02:51        1.93
  YS02006558           JUNCTION     1.00     1.98     8.24     0  03:00        1.96
  YS02001783           JUNCTION     0.57     2.40     8.54     0  02:43        1.50
  YS02001784           JUNCTION     0.58     2.29     8.36     0  02:43        1.44
  YS02001786           JUNCTION     0.51     2.07     8.10     0  02:43        1.28
  YS02001788           JUNCTION     0.43     1.78     7.75     0  02:43        1.14
  YS02001790           JUNCTION     0.53     1.96     7.60     0  02:42        1.30
  YS02001791           JUNCTION     0.47     1.64     7.11     0  02:43        1.28
  YS02001793           JUNCTION     0.61     1.98     6.82     0  02:43        1.81
  WS02004139           JUNCTION     0.66     0.73     5.64     0  03:21        0.73
  WSC                  OUTFALL      0.34     0.42     1.09     0  03:07        0.42
  3                    OUTFALL      0.13     0.23     6.23     0  00:00        0.21
  4                    OUTFALL      0.05     0.19     7.19     0  03:00        0.19
  5                    OUTFALL      0.00     0.00     5.00     0  00:00        0.00
  JK-storage           STORAGE      2.42     5.80     6.60     0  02:43        5.80
  CC-storage           STORAGE      1.08     1.38     8.38     0  03:54        1.38
  XR-storage           STORAGE      6.25     7.72     5.72     0  03:08        7.72
  
  
  *******************
  Node Inflow Summary
  *******************
  
  -------------------------------------------------------------------------------------------------
                                  Maximum  Maximum                  Lateral       Total        Flow
                                  Lateral    Total  Time of Max      Inflow      Inflow     Balance
                                   Inflow   Inflow   Occurrence      Volume      Volume       Error
  Node                 Type           LPS      LPS  days hr:min    10^6 ltr    10^6 ltr     Percent
  -------------------------------------------------------------------------------------------------
  WS02001211           JUNCTION      7.35   388.54     0  04:00       0.207        8.69       0.484
  WS02001212           JUNCTION      0.00   389.76     0  04:00           0        8.65       0.282
  WS02001213           JUNCTION      0.00   391.04     0  04:00           0        8.62       0.321
  WS02003069           JUNCTION      0.32  1074.39     0  03:05     0.00902        18.1       0.205
  WS02003072           JUNCTION      0.00  1074.15     0  03:06           0          18       0.242
  WS02003073           JUNCTION      1.82  1075.84     0  03:06      0.0514          18       0.281
  WS02003060           JUNCTION     16.53  1074.15     0  03:04       0.466        18.1       0.192
  WS02003066           JUNCTION      0.00   796.81     0  03:05           0        9.07       0.054
  WS02003059           JUNCTION      0.00   393.40     0  04:01           0         8.6       0.492
  WS02003067           JUNCTION      0.00   796.26     0  03:05           0        9.08       0.111
  WS02004401           JUNCTION      0.00   800.11     0  03:03           0        9.34       0.248
  WS02004402           JUNCTION      0.00   800.13     0  03:03           0        9.31       0.232
  WS02004403           JUNCTION      0.00   800.17     0  03:03           0        9.29       0.210
  WS02004404           JUNCTION      0.16   800.37     0  03:03     0.00457        9.28       0.155
  WS02004406           JUNCTION      0.00   800.43     0  03:03           0        9.24       0.379
  WS02004409           JUNCTION      0.00   800.25     0  03:04           0         9.2       0.202
  WS02004410           JUNCTION      0.00   798.45     0  03:04           0        9.18       0.226
  WS02004411           JUNCTION      0.00   797.21     0  03:04           0        9.16       0.230
  WS02004412           JUNCTION      0.00   796.44     0  03:04           0        9.14       0.245
  WS02004413           JUNCTION      0.00   796.17     0  03:05           0        9.12       0.358
  WS02004405           JUNCTION      0.04   800.42     0  03:03     0.00107        9.26       0.235
  WS02006109           JUNCTION      1.23   785.76     0  03:02      0.0347         9.4       0.246
  WS02006110           JUNCTION      0.00   785.70     0  03:02           0        9.38       0.223
  WS02006111           JUNCTION      0.00   782.29     0  03:03           0        9.35       0.052
  WS02006112           JUNCTION     26.73   799.87     0  03:03      0.0709        9.41       0.318
  WS02006113           JUNCTION      0.00   785.65     0  03:02           0        9.36       0.117
  WS02006115           JUNCTION      0.00   799.80     0  03:03           0        9.38       0.242
  WS02006116           JUNCTION      0.00   800.04     0  03:03           0        9.36       0.230
  WS02006230           JUNCTION     10.28   402.93     0  05:27        0.29        7.31       0.180
  WS02006231           JUNCTION      0.00   392.64     0  05:20           0        7.03       0.205
  WS02006232           JUNCTION      0.00   392.65     0  05:20           0        7.05       0.245
  WS02006234           JUNCTION      0.00   392.71     0  05:20           0        7.06       0.132
  WS02006235           JUNCTION      0.00   392.69     0  05:20           0        7.11       0.161
  WS02006238           JUNCTION      0.00   344.30     0  07:40           0         5.2       0.172
  WS02006240           JUNCTION      0.00   338.73     0  07:40           0         5.2       0.284
  WS02006242           JUNCTION      0.00   337.24     0  07:41           0        5.21       0.344
  WS02006243           JUNCTION      0.00   336.87     0  07:50           0        5.21       0.129
  WS02006245           JUNCTION      0.00   340.85     0  06:41           0        5.23       0.248
  WS02006247           JUNCTION      0.00   347.33     0  06:41           0        5.24       0.194
  WS02006248           JUNCTION      0.00   353.25     0  06:40           0        5.24       0.136
  WS02006249           JUNCTION      0.00   520.43     0  03:00           0        6.33       0.234
  WS02006239           JUNCTION      0.00   342.49     0  07:40           0         5.2       0.272
  WS02006251           JUNCTION      0.08   522.11     0  03:00     0.00217        6.36       0.222
  WS02006252           JUNCTION      0.00   400.00     0  03:30           0        5.94       0.008
  WS02006253           JUNCTION      3.67   134.78     0  03:01     0.00915       0.433       1.860
  WS02006256           JUNCTION      0.00   600.00     0  00:00           0        7.63       0.026
  WS02004138           JUNCTION      0.00   380.00     0  00:20           0        8.52       0.067
  WS02004407           JUNCTION      0.00   800.45     0  03:03           0        9.21       0.090
  WS02006228           JUNCTION      0.00   784.52     0  03:02           0        9.38       0.177
  WS02006229           JUNCTION      0.00   784.68     0  03:02           0        9.39       0.123
  WS02006280           JUNCTION      0.00   611.96     0  03:02           0         2.1       0.003
  WS02006284           JUNCTION      0.10   611.06     0  03:02      0.0027         2.1       0.059
  WS02006287           JUNCTION      0.00   609.84     0  03:02           0         2.1       0.034
  WSF200               JUNCTION      0.00   797.04     0  03:05           0        9.07       0.053
  HS02004901           JUNCTION     32.58    32.58     0  03:01      0.0853      0.0856       2.108
  HS02004881           JUNCTION     13.69   131.68     0  03:01      0.0372       0.403       0.085
  HS02004876           JUNCTION     24.31   119.37     0  03:01      0.0714       0.367       0.153
  HS02004870           JUNCTION     25.15    96.63     0  03:01      0.0703       0.295       0.038
  HS02004862           JUNCTION     23.13    73.48     0  03:01      0.0763       0.225       0.079
  HS02004856           JUNCTION     18.81    51.88     0  03:01      0.0529        0.15       0.974
  HS02004852           JUNCTION      0.00    35.11     0  03:01           0      0.0975       0.061
  HS02004848           JUNCTION     51.30    51.30     0  03:01        0.17        0.17       0.031
  HS02004842           JUNCTION      0.00    15.11     0  03:01           0      0.0852      18.024
  HS02004837           JUNCTION     48.64    62.30     0  03:01       0.302       0.374       0.219
  HS02004830           JUNCTION      0.15    61.39     0  03:01     0.00423       0.364       0.340
  HS02004824           JUNCTION     61.99   121.76     0  03:01       0.222       0.584       0.093
  HS02004817           JUNCTION      0.60   117.99     0  03:02      0.0169       0.601       2.855
  HS02004807           JUNCTION     46.68   158.05     0  03:01       0.129       0.713       0.602
  HS02004802           JUNCTION      0.00   156.91     0  03:03           0       0.709       0.570
  HS02004799           JUNCTION     37.02   389.10     0  03:01       0.105        1.19       0.208
  HS02004792           JUNCTION    159.34   356.43     0  03:01       0.445        1.08       0.038
  HS02004788           JUNCTION     52.70   202.58     0  03:02       0.193       0.638       0.061
  HS02004785           JUNCTION      0.15   157.28     0  03:01     0.00423       0.447       0.112
  HS02004777           JUNCTION      0.03   160.01     0  03:01    0.000846       0.447       1.175
  HS02004770           JUNCTION    133.95   163.77     0  03:01       0.365       0.449       0.699
  HS02004480           JUNCTION      0.00   456.69     0  03:01           0         1.4       0.083
  HS02004479           JUNCTION      0.00    72.19     0  03:02           0       0.228       0.322
  HS02004478           JUNCTION      0.00   609.30     0  03:02           0         2.1       0.019
  YS02001745           JUNCTION    387.96   387.96     0  03:01        2.65        2.65       0.343
  YS02001748           JUNCTION      0.04   428.76     0  02:45     0.00127        2.64       0.895
  YS02001751           JUNCTION      0.01   397.77     0  03:01     0.00031        2.62       0.909
  YS02001754           JUNCTION      0.26   398.11     0  03:01     0.00733         2.6       0.962
  YS02001762           JUNCTION      0.00   372.43     0  02:53           0         1.8       1.189
  YS02001765           JUNCTION      0.00   372.52     0  02:53           0         1.8       1.368
  YS02001767           JUNCTION      0.54   372.63     0  02:53      0.0151        1.82       2.012
  YS02001770           JUNCTION    496.57   496.57     0  03:01        2.97        3.06       1.047
  YS02001774           JUNCTION      0.00   379.43     0  03:26           0        1.32       1.943
  YS02001779           JUNCTION      0.01   379.37     0  03:26    0.000141        1.29       1.214
  YS02001882           JUNCTION      0.00    41.61     0  02:47           0      0.0228      11.430
  YS02001884           JUNCTION      0.00    62.31     0  02:45           0       0.058      12.365
  YS02001759           JUNCTION    483.56   744.44     0  02:54        2.74        4.42       0.523
  YS02001887           JUNCTION    623.03   623.06     0  03:01        3.16        3.19       0.276
  YS02001890           JUNCTION      0.00   623.26     0  03:01           0        3.14       0.301
  YS02001898           JUNCTION      0.00   517.20     0  03:05           0        3.09       0.115
  YS02001901           JUNCTION      0.00   517.26     0  03:05           0        3.09       0.227
  YS02001904           JUNCTION      0.00   517.18     0  03:05           0        3.08       0.211
  YS02001907           JUNCTION      0.00  1064.00     0  03:01           0        6.88       0.354
  YS02001910           JUNCTION      0.00   550.36     0  02:53           0        3.81       0.317
  YS02001915           JUNCTION    347.37   550.28     0  02:53        2.22        3.86       0.164
  YS02001918           JUNCTION      0.00   289.59     0  02:53           0        1.66       0.120
  YS02001619           JUNCTION    337.96   337.96     0  03:01        2.21        2.21       0.554
  YS02001629           JUNCTION      0.00   215.56     0  02:48           0        1.56       1.881
  YS02001641           JUNCTION      0.00   453.16     0  02:48           0        4.08       0.519
  YS02001644           JUNCTION    368.39  1121.89     0  03:23        2.55         8.4       0.313
  YS02001652           JUNCTION      0.00   485.83     0  03:01           0        2.31       1.017
  YS02001655           JUNCTION      0.15   485.71     0  03:01     0.00434        2.34       1.095
  YS02001920           JUNCTION      2.87   289.32     0  02:53      0.0809        1.64       0.188
  YS02001923           JUNCTION      0.04   256.32     0  02:54     0.00106        1.55       0.049
  YS02001926           JUNCTION      0.05   222.42     0  02:53     0.00147        1.53       0.226
  YS02001929           JUNCTION    163.23   163.23     0  03:01        1.53        1.53       0.038
  YS02001658           JUNCTION      0.00   630.92     0  02:41           0        2.36       0.973
  YS02001661           JUNCTION      0.00   738.78     0  03:02           0        3.08      -0.244
  YS02001664           JUNCTION    446.68   446.68     0  03:01        2.35        3.08       0.152
  YS02001622           JUNCTION      0.00   338.18     0  03:01           0        2.19       1.468
  YS02001633           JUNCTION    373.80   453.16     0  02:48        2.63        4.14       0.783
  YS02001649           JUNCTION      0.00   964.77     0  02:49           0        4.98       0.752
  YS02001757           JUNCTION      0.00  1880.91     0  02:50           0        9.99       0.932
  YS02001895           JUNCTION      0.00   517.20     0  03:05           0        3.09       0.164
  YS02001625           JUNCTION      0.00   338.19     0  03:01           0        2.16       1.824
  YS02163301           JUNCTION      0.00   215.59     0  02:48           0        1.54       1.583
  YS02163601           JUNCTION      0.11   453.28     0  02:48      0.0031         4.1       0.739
  YS02164001           JUNCTION      0.00   453.27     0  02:48           0        4.08       0.496
  YS02001647           JUNCTION      0.00   687.83     0  02:48           0        3.82       0.743
  YSB1154              JUNCTION     43.21    43.21     0  03:01       0.127       0.128       1.145
  YSB6556              JUNCTION      0.00    41.77     0  03:01           0       0.129       0.980
  YSB1174              JUNCTION     35.94    35.94     0  03:01      0.0924      0.0931       1.403
  YSB1171              JUNCTION      0.00    73.33     0  03:01           0       0.227       2.865
  YS02006553           JUNCTION      0.00   672.08     0  03:32           0        6.13       0.257
  YS02006561           JUNCTION      0.00   969.08     0  03:01           0        8.97       0.008
  YS02006556           JUNCTION      0.00   671.82     0  03:31           0        6.13       0.187
  YS02006558           JUNCTION    532.26   969.40     0  03:00         2.9           9       0.061
  YS02001783           JUNCTION      0.00   969.04     0  03:00           0        8.97       0.027
  YS02001784           JUNCTION      1.06   970.13     0  03:01      0.0299           9       0.043
  YS02001786           JUNCTION      0.06   970.12     0  03:00     0.00159           9       0.041
  YS02001788           JUNCTION      0.07   970.20     0  03:01       0.002           9       0.024
  YS02001790           JUNCTION      0.15   970.41     0  03:01     0.00437           9       0.030
  YS02001791           JUNCTION      0.00   970.43     0  03:00           0           9       0.014
  YS02001793           JUNCTION      0.00   970.50     0  03:00           0           9       0.003
  WS02004139           JUNCTION      0.32   380.41     0  01:10     0.00905        8.52       0.525
  WSC                  OUTFALL       0.00  1075.65     0  03:07           0          18       0.000
  3                    OUTFALL       0.00   597.65     0  00:00           0        5.69       0.000
  4                    OUTFALL       0.00   301.75     0  03:00           0        1.07       0.000
  5                    OUTFALL       0.00     0.00     0  00:00           0           0       0.000 ltr
  JK-storage           STORAGE       0.00   970.47     0  03:00           0        9.15     -10.459
  CC-storage           STORAGE       0.00  1880.71     0  02:50           0         9.2       0.324
  XR-storage           STORAGE     849.17   849.17     0  03:01        10.2        10.8      -1.404
  
  
  **********************
  Node Surcharge Summary
  **********************
  
  Surcharging occurs when water rises above the top of the highest conduit.
  ---------------------------------------------------------------------
                                               Max. Height   Min. Depth
                                   Hours       Above Crown    Below Rim
  Node                 Type      Surcharged         Meters       Meters
  ---------------------------------------------------------------------
  WS02004401           JUNCTION        0.27          0.104        1.556
  WS02004402           JUNCTION        0.31          0.107        1.633
  WS02004403           JUNCTION        0.32          0.097        1.933
  WS02004404           JUNCTION        0.50          0.150        2.630
  WS02004406           JUNCTION        0.41          0.100        2.350
  WS02004405           JUNCTION        0.44          0.131        2.669
  WS02006109           JUNCTION        3.82          0.437        1.383
  WS02006110           JUNCTION        0.96          0.194        1.656
  WS02006112           JUNCTION        1.30          0.380        1.300
  WS02006115           JUNCTION        0.10          0.046        2.204
  WS02006116           JUNCTION        0.14          0.053        2.237
  WS02006230           JUNCTION        0.43          0.299        1.271
  WS02006231           JUNCTION        0.48          0.307        1.223
  WS02006232           JUNCTION        4.07          0.410        1.070
  WS02006234           JUNCTION        0.64          0.277        0.963
  WS02006235           JUNCTION        2.84          0.297        0.993
  WS02006238           JUNCTION        3.41          0.306        1.124
  WS02006240           JUNCTION        0.62          0.196        1.194
  WS02006242           JUNCTION        2.72          0.224        0.596
  WS02006243           JUNCTION        0.31          0.104        0.666
  WS02006245           JUNCTION        0.21          0.057        0.793
  WS02006247           JUNCTION        0.20          0.053        0.707
  WS02006239           JUNCTION        1.89          0.237        1.053
  WS02006252           JUNCTION        3.69          0.193        0.907
  WS02006256           JUNCTION        0.01          1.050        0.000
  WS02006228           JUNCTION        3.66          0.545        1.655
  YS02001748           JUNCTION        5.05          0.784        0.406
  YS02001751           JUNCTION        5.16          0.785        0.415
  YS02001754           JUNCTION        5.30          0.810        0.340
  YS02001762           JUNCTION        5.52          1.037        0.113
  YS02001765           JUNCTION        5.49          0.983        0.117
  YS02001767           JUNCTION        5.47          0.939        0.091
  YS02001770           JUNCTION        5.45          0.887        0.033
  YS02001774           JUNCTION        5.50          0.980        0.070
  YS02001779           JUNCTION        5.29          0.680        0.000
  YS02001882           JUNCTION        1.03          0.654        0.176
  YS02001884           JUNCTION        1.06          0.687        0.183
  YS02001759           JUNCTION        5.54          1.074        0.136
  YS02001887           JUNCTION        1.14          0.761        0.189
  YS02001890           JUNCTION        1.17          0.760        0.000
  YS02001898           JUNCTION        0.99          0.541        0.199
  YS02001901           JUNCTION        1.11          0.682        0.188
  YS02001904           JUNCTION        1.09          0.644        0.206
  YS02001907           JUNCTION        1.66          0.950        0.000
  YS02001910           JUNCTION        1.21          0.796        0.304
  YS02001915           JUNCTION        1.02          0.624        0.376
  YS02001918           JUNCTION        0.78          0.352        0.458
  YS02001619           JUNCTION        5.17          0.610        0.000
  YS02001629           JUNCTION        5.17          0.470        0.000
  YS02001641           JUNCTION        5.50          0.936        0.164
  YS02001644           JUNCTION        5.50          0.920        0.000
  YS02001652           JUNCTION        5.33          1.130        0.000
  YS02001655           JUNCTION        5.18          1.200        0.000
  YS02001920           JUNCTION        0.82          0.413        0.727
  YS02001658           JUNCTION        5.07          1.300        0.000
  YS02001661           JUNCTION        0.25          1.390        0.000
  YS02001622           JUNCTION        5.19          0.620        0.000
  YS02001633           JUNCTION        5.48          0.929        0.131
  YS02001649           JUNCTION        5.52          1.050        0.000
  YS02001757           JUNCTION        5.62          1.173        0.037
  YS02001895           JUNCTION        1.00          0.568        0.182
  YS02001625           JUNCTION        5.42          0.780        0.000
  YS02163301           JUNCTION        5.46          0.902        0.128
  YS02163601           JUNCTION        5.52          0.987        0.093
  YS02164001           JUNCTION        5.49          0.918        0.182
  YS02001647           JUNCTION        5.40          0.806        0.094
  YS02006553           JUNCTION        1.70          0.968        0.222
  YS02006561           JUNCTION        0.91          0.332        0.818
  YS02006556           JUNCTION        1.41          0.893        0.457
  YS02006558           JUNCTION        1.37          0.875        0.525
  YS02001783           JUNCTION        1.44          1.596        0.004
  YS02001784           JUNCTION        1.46          1.490        0.000
  YS02001786           JUNCTION        1.44          1.269        0.161
  YS02001788           JUNCTION        1.43          0.976        0.504
  YS02001790           JUNCTION        1.62          1.157        0.000
  YS02001791           JUNCTION        1.67          0.844        1.076
  YS02001793           JUNCTION        1.79          0.985        1.615
  
  
  *********************
  Node Flooding Summary
  *********************
  
  Flooding refers to all water that overflows a node, whether it ponds or not.
  --------------------------------------------------------------------------
                                                             Total   Maximum
                                 Maximum   Time of Max       Flood    Ponded
                        Hours       Rate    Occurrence      Volume     Depth
  Node                 Flooded       LPS   days hr:min    10^6 ltr    Meters
  --------------------------------------------------------------------------
  WS02006256              0.01    406.11      0  00:00       0.001     0.000
  YS02001779              2.44    379.36      0  03:26       1.268     0.000
  YS02001890              0.23    106.60      0  03:01       0.038     0.000
  YS02001907              0.65    620.45      0  03:01       0.738     0.000
  YS02001619              0.01     28.88      0  02:42       0.000     0.000
  YS02001629              0.01     29.57      0  02:42       0.000     0.000
  YS02001644              3.89   1121.73      0  03:23       6.333     0.000
  YS02001652              0.01     17.01      0  03:07       0.000     0.000
  YS02001655              0.01     75.51      0  02:41       0.000     0.000
  YS02001658              0.01    275.40      0  02:41       0.000     0.000
  YS02001661              0.01    163.95      0  02:57       0.001     0.000
  YS02001622              0.01     20.31      0  02:42       0.000     0.000
  YS02001649              0.11     56.05      0  02:57       0.007     0.000
  YS02001625              1.15    318.47      0  03:01       0.563     0.000
  YS02001784              0.01     25.00      0  02:43       0.000     0.000
  YS02001790              0.01    113.23      0  02:42       0.000     0.000
  JK-storage              1.45    669.67      0  02:59       2.536     0.000
  XR-storage              2.75    568.03      0  03:10       1.722     0.000
  
  
  **********************
  Storage Volume Summary
  **********************
  
  --------------------------------------------------------------------------------------------------
                         Average     Avg  Evap Exfil       Maximum     Max    Time of Max    Maximum
                          Volume    Pcnt  Pcnt  Pcnt        Volume    Pcnt     Occurrence    Outflow
  Storage Unit           1000 m3    Full  Loss  Loss       1000 m3    Full    days hr:min        LPS
  --------------------------------------------------------------------------------------------------
  JK-storage               0.122      42     0     0         0.291     100       0  02:43     600.00
  CC-storage               2.999      19     0     0         3.859      25       0  03:54     400.00
  XR-storage               0.750      81     0     0         0.926     100       0  03:08     380.00
  
  
  ***********************
  Outfall Loading Summary
  ***********************
  
  -----------------------------------------------------------
                         Flow       Avg       Max       Total
                         Freq      Flow      Flow      Volume
  Outfall Node           Pcnt       LPS       LPS    10^6 ltr
  -----------------------------------------------------------
  WSC                   99.99    720.94   1075.65      17.977
  3                     94.38    284.74    597.65       5.688
  4                     61.05     79.71    301.75       1.070
  5                      0.00      0.00      0.00       0.000
  -----------------------------------------------------------
  System                63.86   1085.39   1780.05      24.735
  
  
  ********************
  Link Flow Summary
  ********************
  
  -----------------------------------------------------------------------------
                                 Maximum  Time of Max   Maximum    Max/    Max/
                                  |Flow|   Occurrence   |Veloc|    Full    Full
  Link                 Type          LPS  days hr:min     m/sec    Flow   Depth
  -----------------------------------------------------------------------------
  WS02003066WSF200     CONDUIT    797.04     0  03:05      2.93    0.13    0.29
  WS02006287WS02006284 CONDUIT    610.97     0  03:02      2.31    0.28    0.37
  WS02006284WS02006280 CONDUIT    611.96     0  03:02      2.55    0.26    0.35
  WS02006280WS02006229 CONDUIT    612.08     0  03:02      4.12    0.13    0.24
  WS02006229WS02006228 CONDUIT    784.52     0  03:02      1.56    2.60    1.00
  WS02006256WS02006235 CONDUIT    177.52     0  00:01      2.73    1.88    1.00
  WS02006253WS02006251 CONDUIT    140.27     0  03:01      0.49    0.42    1.00
  WS02006252WS02006251 CONDUIT    400.69     0  07:47      3.19    1.47    1.00
  WS02006251WS02006249 CONDUIT    520.43     0  03:00      1.35    1.50    0.99
  WS02006249WS02006248 CONDUIT    353.25     0  06:40      1.15    1.94    0.97
  WS02006248WS02006247 CONDUIT    347.33     0  06:41      1.11    0.76    0.99
  WS02006247WS02006245 CONDUIT    340.85     0  06:41      1.08    2.70    1.00
  WS02006245WS02006243 CONDUIT    336.87     0  07:50      1.13    1.00    1.00
  WS02006243WS02006242 CONDUIT    337.24     0  07:41      0.95    0.72    1.00
  WS02006242WS02006240 CONDUIT    338.73     0  07:40      0.91    1.35    1.00
  WS02006240WS02006239 CONDUIT    342.49     0  07:40      0.96    1.08    1.00
  WS02006239WS02006238 CONDUIT    344.30     0  07:40      0.91    1.10    1.00
  WS02006238WS02006235 CONDUIT    344.24     0  07:40      1.32    0.77    1.00
  WS02006235WS02006234 CONDUIT    392.71     0  05:20      1.04    4.14    1.00
  WS02006234WS02006232 CONDUIT    392.65     0  05:20      1.17    0.79    1.00
  WS02006232WS02006231 CONDUIT    392.64     0  05:20      1.06    0.82    1.00
  WS02006231WS02006230 CONDUIT    392.65     0  05:27      1.35    5.96    1.00
  WS02006230WS02006229 CONDUIT    402.96     0  05:27      1.05    8.97    1.00
  WS02006228WS02006109 CONDUIT    784.53     0  03:02      1.56    3.43    1.00
  WS02006116WS02004401 CONDUIT    800.11     0  03:03      1.02    1.10    1.00
  WS02006115WS02006116 CONDUIT    800.04     0  03:03      1.02    1.03    1.00
  WS02006113WS02006111 CONDUIT    782.29     0  03:03      2.60    0.94    0.75
  WS02006112WS02006115 CONDUIT    799.80     0  03:03      1.02    0.47    1.00
  WS02006111WS02006112 CONDUIT    782.51     0  03:03      1.72    0.37    0.87
  WS02006110WS02006113 CONDUIT    785.65     0  03:02      1.68    0.71    0.88
  WS02006109WS02006110 CONDUIT    785.70     0  03:02      1.56    1.51    1.00
  WS02004411WS02004412 CONDUIT    796.44     0  03:04      1.14    1.13    0.83
  WS02004401WS02004402 CONDUIT    800.13     0  03:03      1.02    0.96    1.00
  WS02004413WS02003067 CONDUIT    796.26     0  03:05      1.39    0.34    0.69
  WS02004412WS02004413 CONDUIT    796.17     0  03:05      1.07    0.53    0.90
  WS02004410WS02004411 CONDUIT    797.21     0  03:04      1.13    1.09    0.84
  WS02004409WS02004410 CONDUIT    798.45     0  03:04      1.13    1.03    0.85
  WS02004407WS02004409 CONDUIT    800.25     0  03:04      1.61    0.28    0.60
  WS02004406WS02004407 CONDUIT    800.45     0  03:03      1.40    0.36    0.68
  WS02004405WS02004406 CONDUIT    800.43     0  03:03      1.02    1.58    1.00
  WS02004404WS02004405 CONDUIT    800.38     0  03:03      1.02    7.84    1.00
  WS02004403WS02004404 CONDUIT    800.21     0  03:03      1.02    0.58    1.00
  WS02004402WS02004403 CONDUIT    800.17     0  03:03      1.02    1.15    1.00
  WS02004139WS02001211 CONDUIT    381.19     0  04:00      0.80    0.48    0.59
  WS02004138WS02004139 CONDUIT    380.09     0  01:10      3.34    0.08    0.44
  WS02003067WS02003066 CONDUIT    796.81     0  03:05      1.50    0.26    0.48
  WS02001213WS02003059 CONDUIT    393.40     0  04:01      0.80    0.65    0.78
  WS02001212WS02001213 CONDUIT    391.04     0  04:00      1.32    0.60    0.47
  WS02001211WS02001212 CONDUIT    389.76     0  04:00      0.78    0.30    0.65
  WS02003072WS02003073 CONDUIT   1074.02     0  03:06      1.81    2.32    0.52
  WS02003069WS02003072 CONDUIT   1074.15     0  03:06      1.69    0.52    0.55
  WS02003060WS02003069 CONDUIT   1074.07     0  03:05      1.93    0.42    0.49
  WS02003059WS02003060 CONDUIT    396.68     0  04:01      0.95    0.26    0.69
  HS02004901HS02004770 CONDUIT     32.24     0  03:01      0.09    0.12    0.50
  HS02004876HS02004881 CONDUIT    119.33     0  03:01      1.17    1.27    0.15
  HS02004870HS02004876 CONDUIT     96.13     0  03:01      0.79    0.06    0.17
  HS02004842HS02004848 CONDUIT     15.11     0  03:01      0.07    0.01    0.33
  HS02004837HS02004842 CONDUIT     16.10     0  03:03      0.41    0.01    0.34
  HS02004830HS02004837 CONDUIT     61.24     0  03:01      0.66    0.06    0.13
  HS02004824HS02004830 CONDUIT     60.79     0  03:01      0.63    0.08    0.15
  HS02004817HS02004824 CONDUIT    117.39     0  03:02      0.30    0.05    0.56
  HS02004770HS02004777 CONDUIT    159.98     0  03:01      0.45    0.29    0.51
  HS02004799HS02004480 CONDUIT    387.38     0  03:01      1.00    0.49    0.56
  HS02004792HS02004799 CONDUIT    353.06     0  03:01      1.12    0.22    0.45
  HS02004788HS02004792 CONDUIT    202.14     0  03:02      1.22    0.13    0.24
  HS02004785HS02004788 CONDUIT    156.68     0  03:02      0.85    1.18    0.26
  HS02004777HS02004785 CONDUIT    157.13     0  03:01      0.53    0.19    0.42
  HS02004480HS02004478 CONDUIT    456.75     0  03:01      1.47    1.92    0.44
  HS02004479HS02004480 CONDUIT     74.07     0  03:02      0.22    0.07    0.53
  HS02004862HS02004870 CONDUIT     73.11     0  03:01      0.77    0.08    0.14
  HS02004848HS02004852 CONDUIT     35.11     0  03:01      0.52    0.04    0.10
  HS02004856HS02004862 CONDUIT     51.23     0  03:01      0.58    0.05    0.13
  HS02004852HS02004856 CONDUIT     35.02     0  03:02      0.32    0.04    0.16
  HS02004802HS02004478 CONDUIT    160.68     0  03:04      0.54    0.14    0.45
  HS02004478WS02006287 CONDUIT    609.84     0  03:02      2.03    0.17    0.33
  HS02004817HS02004807 CONDUIT    120.81     0  03:04      0.24    0.07    0.73
  HS02004807HS02004802 CONDUIT    156.91     0  03:03      0.45    0.30    0.51
  YS02001759YS02001757 CONDUIT    744.56     0  02:54      0.95    0.53    1.00
  YS02001762YS02001759 CONDUIT    372.44     0  02:53      0.47    0.43    1.00
  YS02001765YS02001762 CONDUIT    372.43     0  02:53      0.47    0.35    1.00
  YS02001770YS02001767 CONDUIT    372.10     0  02:53      0.47    1.47    1.00
  YS02001774YS02001770 CONDUIT    379.43     0  03:26      0.48    0.24    1.00
  YS02001779YS02001774 CONDUIT    379.36     0  03:26      0.48    0.19    1.00
  YS02001649YS02001757 CONDUIT    965.29     0  02:49      1.23    0.59    1.00
  YS02001767YS02001765 CONDUIT    372.52     0  02:53      0.47    0.47    1.00
  YS02006561YS02001783 CONDUIT    969.04     0  03:00      2.11    0.50    1.00
  YS02001783YS02001784 CONDUIT    969.07     0  03:01      1.93    1.34    1.00
  YS02001784YS02001785 CONDUIT    970.07     0  03:00      1.93    2.26    1.00
  YS02001788YS02001790 CONDUIT    970.25     0  03:01      2.33    0.72    1.00
  YS02001790YS02001791 CONDUIT    970.43     0  03:00      2.82    1.06    1.00
  YS02001791YS02001793 CONDUIT    970.50     0  03:00      5.68    0.42    1.00
  YS02001910YS02001907 CONDUIT    550.46     0  02:53      0.70    0.31    1.00
  YS02001786YS02001788 CONDUIT    970.13     0  03:01      2.23    1.87    1.00
  YS02001915YS02001910 CONDUIT    550.36     0  02:53      0.70    0.27    1.00
  YS02001918YS02001915 CONDUIT    290.09     0  02:53      0.44    0.16    1.00
  YS02001923YS02001920 CONDUIT    286.45     0  02:53      0.72    0.13    1.00
  YS02001926YS02001923 CONDUIT    256.28     0  02:54      0.82    0.37    0.98
  YS02001929YS02001926 CONDUIT    222.37     0  02:53      0.87    0.11    0.86
  YS02001920YS02001918 CONDUIT    289.59     0  02:53      0.70    0.28    1.00
  YS02001629YS02163301 CONDUIT    215.59     0  02:48      0.27    0.27    1.00
  YS02001619YS02001622 CONDUIT    338.18     0  03:01      0.60    0.50    1.00
  YS02001622YS02001625 CONDUIT    338.19     0  03:01      0.43    0.18    1.00
  YS02001625YS02001629 CONDUIT    215.56     0  02:48      0.27    0.10    1.00
  YS02163301YS02001633 CONDUIT    215.52     0  02:48      0.27    0.20    1.00
  YS02163601YS02164001 CONDUIT    453.27     0  02:48      0.58    0.40    1.00
  YS02164001YS02001641 CONDUIT    453.16     0  02:48      0.58    0.62    1.00
  YS02001641YS02001644 CONDUIT    453.08     0  02:48      0.58    1.46    1.00
  YS02001647YS02001649 CONDUIT    687.87     0  02:48      0.88    0.36    1.00
  YS02006553YS02006556 CONDUIT    671.82     0  03:31      0.86    0.57    1.00
  YS02006556YS02006558 CONDUIT    672.04     0  03:31      0.86    0.53    1.00
  YSB6556YSB1171       CONDUIT     41.33     0  03:02      0.13    0.04    0.80
  YS02001907YS02006553 CONDUIT    672.08     0  03:32      0.75    0.79    1.00
  YS02006558YS02006561 CONDUIT    969.08     0  03:01      3.43    2.14    1.00
  YS02001633YS02163601 CONDUIT    453.17     0  02:48      0.58    0.48    1.00
  YS02001644YS02001647 CONDUIT    687.83     0  02:48      0.88    0.40    1.00
  YS02001745YS02001748 CONDUIT    428.71     0  02:45      1.48    0.17    0.94
  YS02001748YS02001751 CONDUIT    397.76     0  03:01      1.03    0.20    1.00
  YS02001751YS02001754 CONDUIT    397.85     0  03:01      0.84    0.19    1.00
  YS02001754YS02001757 CONDUIT    397.99     0  03:01      0.51    0.16    1.00
  YS02001882YS02001884 CONDUIT     41.61     0  02:47      0.08    0.05    1.00
  YS02001884YS02001887 CONDUIT     62.31     0  02:45      0.08    0.08    1.00
  YS02001890YS02001895 CONDUIT    517.20     0  03:05      0.66    0.24    1.00
  YS02001895YS02001898 CONDUIT    517.20     0  03:05      0.66    0.90    1.00
  YS02001898YS02001901 CONDUIT    517.26     0  03:05      0.66    0.33    1.00
  YS02001901YS02001904 CONDUIT    517.18     0  03:05      0.66    0.80    1.00
  YS02001904YS02001907 CONDUIT    517.25     0  03:05      0.66    0.18    1.00
  YS02001887YS02001890 CONDUIT    623.26     0  03:01      0.79    1.07    1.00
  YS02001652YS02001649 CONDUIT    486.13     0  03:01      0.62    0.24    1.00
  YS02001655YS02001652 CONDUIT    485.83     0  03:01      0.89    0.24    1.00
  YS02001658YS02001655 CONDUIT    485.55     0  03:01      1.18    0.21    1.00
  YS02001661YS02001658 CONDUIT    630.92     0  02:41      1.56    0.25    1.00
  YS02001664YS02001661 CONDUIT    738.78     0  03:02      1.55    0.23    0.72
  YSB1154YSB6556       CONDUIT     41.77     0  03:01      0.19    0.08    0.69
  YSB1174YSB1171       CONDUIT     34.49     0  03:01      0.10    0.05    0.81
  YSB1171HS02004479    CONDUIT     72.19     0  03:02      0.54    0.05    0.65
  HS02004881HS02006253 CONDUIT    131.62     0  03:01      2.16    0.03    0.37
  YS02001793JiankangQianchi CONDUIT    970.47     0  03:00     13.57    0.08    1.00
  YS02001757CaochengTiaoxuchi CONDUIT   1880.71     0  02:50      2.57    0.83    1.00
  WSF200WS02003060     CONDUIT    798.01     0  03:05      1.92    0.18    0.40
  1                    CONDUIT   1075.65     0  03:07      3.39    0.37    0.42
  2                    CONDUIT    301.75     0  03:00      6.43    0.72    0.63
  3                    CONDUIT    597.65     0  00:00     10.05    0.95    0.86
  4                    CONDUIT      0.00     0  00:00      0.00    0.00    0.00
  CC-Pump-1            PUMP       200.00     0  02:50              1.00
  CC-Pump-2            PUMP       200.00     0  02:06              1.00
  JK-Pump-1            PUMP       300.00     0  00:00              1.00
  JK-Pump-2            PUMP       300.00     0  00:00              1.00
  XR-Pump-1            PUMP        95.00     0  00:20              1.00
  XR-Pump-2            PUMP        95.00     0  00:00              1.00
  XR-Pump-3            PUMP        95.00     0  00:00              1.00
  XR-Pump-4            PUMP        95.00     0  00:00              1.00
  
  
  ***************************
  Flow Classification Summary
  ***************************
  
  -------------------------------------------------------------------------------------
                      Adjusted    ---------- Fraction of Time in Flow Class ---------- 
                       /Actual         Up    Down  Sub   Sup   Up    Down  Norm  Inlet 
  Conduit               Length    Dry  Dry   Dry   Crit  Crit  Crit  Crit  Ltd   Ctrl  
  -------------------------------------------------------------------------------------
  WS02003066WSF200        1.00   0.03  0.03  0.00  0.00  0.94  0.00  0.00  0.56  0.00
  WS02006287WS02006284    1.00   0.03  0.01  0.00  0.59  0.37  0.00  0.00  0.67  0.00
  WS02006284WS02006280    1.00   0.03  0.00  0.00  0.00  0.00  0.00  0.97  0.00  0.00
  WS02006280WS02006229    1.00   0.03  0.00  0.00  0.00  0.00  0.00  0.97  0.00  0.00
  WS02006229WS02006228    1.00   0.00  0.00  0.00  0.99  0.00  0.00  0.01  0.00  0.00
  WS02006256WS02006235    1.00   0.00  0.00  0.00  1.00  0.00  0.00  0.00  0.00  0.00
  WS02006253WS02006251    1.00   0.02  0.01  0.00  0.97  0.00  0.00  0.00  0.00  0.00
  WS02006252WS02006251    1.00   0.07  0.00  0.00  0.00  0.00  0.93  0.00  0.00  0.00
  WS02006251WS02006249    1.00   0.00  0.00  0.00  1.00  0.00  0.00  0.00  0.24  0.00
  WS02006249WS02006248    1.00   0.00  0.01  0.00  0.92  0.00  0.06  0.00  0.00  0.00
  WS02006248WS02006247    1.00   0.02  0.00  0.00  0.98  0.00  0.00  0.01  0.13  0.00
  WS02006247WS02006245    1.00   0.02  0.00  0.00  0.97  0.00  0.00  0.02  0.00  0.00
  WS02006245WS02006243    1.00   0.01  0.00  0.00  0.95  0.00  0.00  0.04  0.01  0.00
  WS02006243WS02006242    1.00   0.01  0.00  0.00  0.99  0.00  0.00  0.00  0.21  0.00
  WS02006242WS02006240    1.00   0.00  0.00  0.00  1.00  0.00  0.00  0.00  0.00  0.00
  WS02006240WS02006239    1.00   0.00  0.00  0.00  0.96  0.00  0.00  0.03  0.02  0.00
  WS02006239WS02006238    1.00   0.00  0.00  0.00  1.00  0.00  0.00  0.00  0.00  0.00
  WS02006238WS02006235    1.00   0.00  0.00  0.00  1.00  0.00  0.00  0.00  0.00  0.00
  WS02006235WS02006234    1.00   0.00  0.00  0.00  0.96  0.00  0.04  0.00  0.00  0.00
  WS02006234WS02006232    1.00   0.00  0.00  0.00  1.00  0.00  0.00  0.00  0.07  0.00
  WS02006232WS02006231    1.00   0.00  0.00  0.00  0.99  0.00  0.01  0.00  0.00  0.00
  WS02006231WS02006230    1.00   0.00  0.00  0.00  0.87  0.00  0.13  0.00  0.00  0.00
  WS02006230WS02006229    1.00   0.00  0.00  0.00  0.99  0.00  0.00  0.01  0.01  0.00
  WS02006228WS02006109    1.00   0.00  0.00  0.00  1.00  0.00  0.00  0.00  0.00  0.00
  WS02006116WS02004401    1.00   0.02  0.00  0.00  0.98  0.00  0.00  0.00  0.00  0.00
  WS02006115WS02006116    1.00   0.02  0.00  0.00  0.97  0.00  0.00  0.01  0.01  0.00
  WS02006113WS02006111    1.00   0.02  0.00  0.00  0.03  0.96  0.00  0.00  0.08  0.00
  WS02006112WS02006115    1.00   0.02  0.00  0.00  0.98  0.00  0.00  0.00  0.00  0.00
  WS02006111WS02006112    1.00   0.02  0.00  0.00  0.98  0.00  0.00  0.00  0.92  0.00
  WS02006110WS02006113    1.00   0.01  0.00  0.00  0.98  0.00  0.00  0.00  0.00  0.00
  WS02006109WS02006110    1.00   0.00  0.01  0.00  0.98  0.00  0.00  0.00  0.00  0.00
  WS02004411WS02004412    1.00   0.04  0.00  0.00  0.96  0.00  0.00  0.00  0.00  0.00
  WS02004401WS02004402    1.00   0.02  0.00  0.00  0.98  0.00  0.00  0.00  0.00  0.00
  WS02004413WS02003067    1.00   0.04  0.01  0.00  0.00  0.00  0.94  0.00  0.00  0.00
  WS02004412WS02004413    1.00   0.04  0.00  0.00  0.96  0.00  0.00  0.00  0.01  0.00
  WS02004410WS02004411    1.00   0.04  0.00  0.00  0.96  0.00  0.00  0.00  0.00  0.00
  WS02004409WS02004410    1.00   0.04  0.00  0.00  0.96  0.00  0.00  0.00  0.00  0.00
  WS02004407WS02004409    1.00   0.04  0.00  0.00  0.95  0.00  0.00  0.00  0.80  0.00
  WS02004406WS02004407    1.00   0.00  0.04  0.00  0.96  0.00  0.00  0.00  0.00  0.00
  WS02004405WS02004406    1.00   0.00  0.00  0.00  1.00  0.00  0.00  0.00  0.02  0.00
  WS02004404WS02004405    1.00   0.00  0.00  0.00  1.00  0.00  0.00  0.00  0.00  0.00
  WS02004403WS02004404    1.00   0.00  0.02  0.00  0.98  0.00  0.00  0.00  0.02  0.00
  WS02004402WS02004403    1.00   0.02  0.00  0.00  0.98  0.00  0.00  0.00  0.00  0.00
  WS02004139WS02001211    1.00   0.00  0.00  0.00  0.99  0.00  0.00  0.00  0.00  0.00
  WS02004138WS02004139    1.00   0.00  0.00  0.00  0.99  0.01  0.00  0.00  1.00  0.00
  WS02003067WS02003066    1.00   0.06  0.00  0.00  0.94  0.00  0.00  0.00  0.00  0.00
  WS02001213WS02003059    1.00   0.00  0.00  0.00  0.99  0.00  0.00  0.00  0.00  0.00
  WS02001212WS02001213    1.00   0.00  0.00  0.00  0.93  0.00  0.07  0.00  0.00  0.00
  WS02001211WS02001212    1.00   0.00  0.00  0.00  1.00  0.00  0.00  0.00  0.00  0.00
  WS02003072WS02003073    1.00   0.00  0.00  0.00  0.00  0.00  0.00  1.00  0.00  0.00
  WS02003069WS02003072    1.00   0.00  0.00  0.00  0.99  0.01  0.00  0.00  0.16  0.00
  WS02003060WS02003069    1.00   0.00  0.00  0.00  0.99  0.01  0.00  0.00  0.05  0.00
  WS02003059WS02003060    1.00   0.00  0.00  0.00  0.99  0.01  0.00  0.00  0.01  0.00
  HS02004901HS02004770    1.00   0.03  0.00  0.00  0.97  0.00  0.00  0.00  0.01  0.00
  HS02004876HS02004881    1.00   0.02  0.00  0.00  0.87  0.11  0.00  0.00  0.00  0.00
  HS02004870HS02004876    1.00   0.01  0.00  0.00  0.99  0.00  0.00  0.00  0.95  0.00
  HS02004842HS02004848    1.00   0.00  0.03  0.00  0.97  0.00  0.00  0.00  0.58  0.00
  HS02004837HS02004842    1.00   0.00  0.00  0.00  0.99  0.01  0.00  0.00  0.11  0.00
  HS02004830HS02004837    1.00   0.00  0.00  0.00  1.00  0.00  0.00  0.00  0.99  0.00
  HS02004824HS02004830    1.00   0.00  0.00  0.00  1.00  0.00  0.00  0.00  0.01  0.00
  HS02004817HS02004824    1.00   0.00  0.00  0.00  1.00  0.00  0.00  0.00  0.98  0.00
  HS02004770HS02004777    1.00   0.00  0.03  0.00  0.97  0.00  0.00  0.00  0.04  0.00
  HS02004799HS02004480    1.00   0.00  0.02  0.00  0.96  0.00  0.02  0.00  0.00  0.00
  HS02004792HS02004799    1.00   0.00  0.00  0.00  0.99  0.01  0.00  0.00  0.98  0.00
  HS02004788HS02004792    1.00   0.00  0.00  0.00  0.99  0.01  0.00  0.00  0.98  0.00
  HS02004785HS02004788    1.00   0.00  0.00  0.00  1.00  0.00  0.00  0.00  0.00  0.00
  HS02004777HS02004785    1.00   0.00  0.00  0.00  1.00  0.00  0.00  0.00  0.15  0.00
  HS02004480HS02004478    1.00   0.03  0.00  0.00  0.67  0.00  0.00  0.30  0.00  0.00
  HS02004479HS02004480    1.00   0.02  0.00  0.00  0.98  0.00  0.00  0.00  0.13  0.00
  HS02004862HS02004870    1.00   0.00  0.00  0.00  1.00  0.00  0.00  0.00  0.06  0.00
  HS02004848HS02004852    1.00   0.03  0.00  0.00  0.97  0.00  0.00  0.00  0.64  0.00
  HS02004856HS02004862    1.00   0.00  0.05  0.00  0.95  0.00  0.00  0.00  0.79  0.00
  HS02004852HS02004856    1.00   0.03  0.00  0.00  0.96  0.00  0.00  0.00  0.81  0.00
  HS02004802HS02004478    1.00   0.03  0.00  0.00  0.96  0.00  0.00  0.00  0.03  0.00
  HS02004478WS02006287    1.00   0.04  0.00  0.00  0.73  0.23  0.00  0.00  0.66  0.00
  HS02004817HS02004807    1.00   0.00  0.03  0.00  0.97  0.00  0.00  0.00  0.01  0.00
  HS02004807HS02004802    1.00   0.03  0.00  0.00  0.96  0.00  0.00  0.00  0.00  0.00
  YS02001759YS02001757    1.00   0.00  0.00  0.00  1.00  0.00  0.00  0.00  0.17  0.00
  YS02001762YS02001759    1.00   0.00  0.00  0.00  1.00  0.00  0.00  0.00  0.04  0.00
  YS02001765YS02001762    1.00   0.00  0.00  0.00  1.00  0.00  0.00  0.00  0.17  0.00
  YS02001770YS02001767    1.00   0.00  0.00  0.00  1.00  0.00  0.00  0.00  0.00  0.00
  YS02001774YS02001770    1.00   0.00  0.03  0.00  0.96  0.00  0.00  0.00  0.04  0.00
  YS02001779YS02001774    1.00   0.00  0.00  0.00  1.00  0.00  0.00  0.00  0.22  0.00
  YS02001649YS02001757    1.00   0.00  0.00  0.00  1.00  0.00  0.00  0.00  0.17  0.00
  YS02001767YS02001765    1.00   0.00  0.00  0.00  1.00  0.00  0.00  0.00  0.01  0.00
  YS02006561YS02001783    1.00   0.05  0.00  0.00  0.29  0.67  0.00  0.00  0.46  0.00
  YS02001783YS02001784    1.00   0.00  0.05  0.00  0.95  0.00  0.00  0.00  0.01  0.00
  YS02001784YS02001785    1.00   0.00  0.00  0.00  1.00  0.00  0.00  0.00  0.21  0.00
  YS02001788YS02001790    1.00   0.00  0.00  0.00  0.34  0.66  0.00  0.00  0.46  0.00
  YS02001790YS02001791    1.00   0.00  0.00  0.00  0.31  0.69  0.00  0.00  0.51  0.00
  YS02001791YS02001793    1.00   0.00  0.00  0.00  0.32  0.68  0.00  0.00  0.01  0.00
  YS02001910YS02001907    1.00   0.00  0.00  0.00  0.98  0.00  0.00  0.02  0.13  0.00
  YS02001786YS02001788    1.00   0.00  0.00  0.00  0.33  0.67  0.00  0.00  0.00  0.00
  YS02001915YS02001910    1.00   0.00  0.00  0.00  0.99  0.01  0.00  0.00  0.19  0.00
  YS02001918YS02001915    1.00   0.00  0.01  0.00  0.99  0.00  0.00  0.00  0.56  0.00
  YS02001923YS02001920    1.00   0.00  0.00  0.00  1.00  0.00  0.00  0.00  0.83  0.00
  YS02001926YS02001923    1.00   0.00  0.02  0.00  0.18  0.00  0.79  0.00  0.00  0.00
  YS02001929YS02001926    1.00   0.00  0.03  0.00  0.97  0.00  0.00  0.00  0.75  0.00
  YS02001920YS02001918    1.00   0.00  0.01  0.00  0.99  0.00  0.00  0.00  0.00  0.00
  YS02001629YS02163301    1.00   0.04  0.00  0.00  0.96  0.00  0.00  0.00  0.00  0.00
  YS02001619YS02001622    1.00   0.03  0.00  0.00  0.97  0.00  0.00  0.00  0.00  0.00
  YS02001622YS02001625    1.00   0.03  0.00  0.00  0.97  0.00  0.00  0.00  0.08  0.00
  YS02001625YS02001629    1.00   0.03  0.02  0.00  0.93  0.00  0.02  0.00  0.00  0.00
  YS02163301YS02001633    1.00   0.00  0.04  0.00  0.96  0.00  0.00  0.00  0.00  0.00
  YS02163601YS02164001    1.00   0.00  0.03  0.00  0.97  0.00  0.00  0.00  0.00  0.00
  YS02164001YS02001641    1.00   0.01  0.02  0.00  0.97  0.00  0.00  0.00  0.06  0.00
  YS02001641YS02001644    1.00   0.00  0.01  0.00  0.99  0.00  0.00  0.00  0.00  0.00
  YS02001647YS02001649    1.00   0.00  0.04  0.00  0.95  0.00  0.00  0.00  0.01  0.00
  YS02006553YS02006556    1.00   0.01  0.00  0.00  0.99  0.00  0.00  0.00  0.03  0.00
  YS02006556YS02006558    1.00   0.00  0.00  0.00  1.00  0.00  0.00  0.00  0.00  0.00
  YSB6556YSB1171          1.00   0.02  0.01  0.00  0.97  0.00  0.00  0.00  0.00  0.00
  YS02001907YS02006553    1.00   0.00  0.01  0.00  0.98  0.00  0.00  0.00  0.00  0.00
  YS02006558YS02006561    1.00   0.05  0.00  0.00  0.21  0.74  0.00  0.00  0.44  0.00
  YS02001633YS02163601    1.00   0.00  0.01  0.00  0.99  0.00  0.00  0.00  0.16  0.00
  YS02001644YS02001647    1.00   0.00  0.05  0.00  0.95  0.00  0.00  0.00  0.00  0.00
  YS02001745YS02001748    1.00   0.00  0.00  0.00  0.88  0.01  0.00  0.10  0.04  0.00
  YS02001748YS02001751    1.00   0.00  0.00  0.00  0.97  0.03  0.00  0.00  0.15  0.00
  YS02001751YS02001754    1.00   0.00  0.00  0.00  0.95  0.00  0.00  0.05  0.02  0.00
  YS02001754YS02001757    1.00   0.00  0.00  0.00  0.99  0.01  0.00  0.00  0.21  0.00
  YS02001882YS02001884    1.00   0.04  0.00  0.00  0.96  0.00  0.00  0.00  0.00  0.00
  YS02001884YS02001887    1.00   0.02  0.01  0.00  0.97  0.00  0.00  0.00  0.00  0.00
  YS02001890YS02001895    1.00   0.00  0.04  0.00  0.96  0.00  0.00  0.00  0.00  0.00
  YS02001895YS02001898    1.00   0.04  0.00  0.00  0.95  0.00  0.01  0.00  0.00  0.00
  YS02001898YS02001901    1.00   0.04  0.00  0.00  0.96  0.00  0.00  0.00  0.03  0.00
  YS02001901YS02001904    1.00   0.04  0.00  0.00  0.96  0.00  0.00  0.00  0.00  0.00
  YS02001904YS02001907    1.00   0.00  0.04  0.00  0.96  0.00  0.00  0.00  0.00  0.00
  YS02001887YS02001890    1.00   0.00  0.00  0.00  0.98  0.00  0.01  0.00  0.00  0.00
  YS02001652YS02001649    1.00   0.00  0.00  0.00  1.00  0.00  0.00  0.00  0.19  0.00
  YS02001655YS02001652    1.00   0.00  0.00  0.00  0.95  0.00  0.00  0.05  0.03  0.00
  YS02001658YS02001655    1.00   0.00  0.04  0.00  0.93  0.03  0.00  0.00  0.13  0.00
  YS02001661YS02001658    1.00   0.04  0.00  0.00  0.88  0.08  0.00  0.00  0.08  0.00
  YS02001664YS02001661    1.00   0.03  0.00  0.00  0.88  0.08  0.00  0.00  0.22  0.00
  YSB1154YSB6556          1.00   0.03  0.00  0.00  0.97  0.00  0.00  0.00  0.02  0.00
  YSB1174YSB1171          1.00   0.02  0.01  0.00  0.97  0.00  0.00  0.00  0.00  0.00
  YSB1171HS02004479       1.00   0.02  0.00  0.00  0.98  0.00  0.00  0.00  0.11  0.00
  HS02004881HS02006253    1.00   0.02  0.00  0.00  0.80  0.05  0.00  0.13  0.67  0.00
  YS02001793JiankangQianchi    1.00   0.00  0.00  0.00  0.53  0.47  0.00  0.00  0.18  0.00
  YS02001757CaochengTiaoxuchi    1.00   0.00  0.07  0.00  0.93  0.00  0.00  0.00  0.00  0.00
  WSF200WS02003060        1.00   0.00  0.03  0.00  0.83  0.14  0.00  0.00  0.25  0.00
  1                       1.00   0.00  0.00  0.00  0.00  1.00  0.00  0.00  0.31  0.00
  2                       1.00   0.39  0.00  0.00  0.00  0.61  0.00  0.00  0.09  0.00
  3                       1.00   0.06  0.00  0.00  0.00  0.94  0.00  0.00  0.03  0.00
  4                       1.00   1.00  0.00  0.00  0.00  0.00  0.00  0.00  0.00  0.00
  
  
  *************************
  Conduit Surcharge Summary
  *************************
  
  ----------------------------------------------------------------------------
                                                           Hours        Hours 
                         --------- Hours Full --------   Above Full   Capacity
  Conduit                Both Ends  Upstream  Dnstream   Normal Flow   Limited
  ----------------------------------------------------------------------------
  WS02006229WS02006228        3.66      3.97      3.66      5.50         3.66
  WS02006256WS02006235        5.97      5.97      7.50      2.23         0.01
  WS02006253WS02006251        0.10      0.10      0.16      0.01         0.01
  WS02006252WS02006251        2.47      2.47      3.69      3.34         0.01
  WS02006251WS02006249        0.01      0.12      0.01      2.60         0.01
  WS02006249WS02006248        0.01      0.01      0.01      4.91         0.01
  WS02006248WS02006247        0.01      0.01      0.20      0.01         0.01
  WS02006247WS02006245        0.21      0.23      0.21      5.29         0.21
  WS02006245WS02006243        0.24      0.24      0.31      0.01         0.01
  WS02006243WS02006242        0.33      0.33      2.72      0.01         0.01
  WS02006242WS02006240        0.62      0.62      3.20      3.43         0.01
  WS02006240WS02006239        1.60      1.60      1.89      0.19         0.01
  WS02006239WS02006238        3.09      3.10      3.40      0.30         0.13
  WS02006238WS02006235        3.23      3.23      3.83      0.01         0.01
  WS02006235WS02006234        0.64      0.64      2.84      6.00         0.01
  WS02006234WS02006232        1.85      1.85      4.06      0.01         0.01
  WS02006232WS02006231        0.48      0.48      4.06      0.01         0.01
  WS02006231WS02006230        0.43      0.43      0.52      5.96         0.01
  WS02006230WS02006229        5.06      5.35      5.06      6.04         5.06
  WS02006228WS02006109        3.82      4.51      3.82      5.82         3.82
  WS02006116WS02004401        0.27      0.27      0.27      0.22         0.22
  WS02006115WS02006116        0.13      0.13      0.14      0.07         0.07
  WS02006112WS02006115        0.10      0.10      1.30      0.01         0.01
  WS02006111WS02006112        0.01      0.01      5.59      0.01         0.01
  WS02006110WS02006113        0.01      0.01      4.22      0.01         0.01
  WS02006109WS02006110        0.96      0.96      4.52      0.97         0.01
  WS02004411WS02004412        0.01      0.01      0.01      0.25         0.01
  WS02004401WS02004402        0.27      0.27      0.31      0.01         0.01
  WS02004410WS02004411        0.01      0.01      0.01      0.19         0.01
  WS02004409WS02004410        0.01      0.01      0.01      0.08         0.01
  WS02004406WS02004407        0.01      0.01      0.41      0.01         0.01
  WS02004405WS02004406        0.41      0.44      0.41      1.13         0.41
  WS02004404WS02004405        0.44      0.50      0.44      5.90         0.44
  WS02004403WS02004404        0.31      0.31      0.50      0.01         0.01
  WS02004402WS02004403        0.31      0.31      0.31      0.27         0.26
  WS02003072WS02003073        0.01      0.01      0.01      5.77         0.01
  HS02004876HS02004881        0.01      0.01      0.01      0.17         0.01
  HS02004785HS02004788        0.01      0.01      0.01      0.10         0.01
  HS02004480HS02004478        0.01      0.01      0.01      0.52         0.01
  YS02001759YS02001757        5.54      5.54      5.62      0.01         0.01
  YS02001762YS02001759        5.52      5.52      5.54      0.01         0.01
  YS02001765YS02001762        5.49      5.49      5.52      0.01         0.01
  YS02001770YS02001767        5.47      5.47      5.47      0.28         0.81
  YS02001774YS02001770        5.45      5.45      5.50      0.01         0.01
  YS02001779YS02001774        5.29      5.29      5.50      0.01         0.01
  YS02001649YS02001757        5.52      5.52      5.62      0.01         0.01
  YS02001767YS02001765        5.47      5.47      5.49      0.01         0.01
  YS02006561YS02001783        0.91      0.91      1.44      0.01         0.01
  YS02001783YS02001784        1.44      1.44      1.46      1.35         1.21
  YS02001784YS02001785        1.44      1.46      1.44      2.22         1.44
  YS02001788YS02001790        1.43      1.43      1.62      0.01         0.01
  YS02001790YS02001791        1.62      1.62      1.67      0.75         0.75
  YS02001791YS02001793        1.67      1.67      1.83      0.01         0.01
  YS02001910YS02001907        1.21      1.21      1.66      0.01         0.01
  YS02001786YS02001788        1.43      1.44      1.43      1.88         1.43
  YS02001915YS02001910        1.02      1.02      1.21      0.01         0.01
  YS02001918YS02001915        0.78      0.78      1.02      0.01         0.01
  YS02001923YS02001920        0.61      0.61      0.82      0.01         0.01
  YS02001920YS02001918        0.78      0.78      0.82      0.01         0.01
  YS02001629YS02163301        5.45      5.45      5.46      0.01         0.01
  YS02001619YS02001622        5.17      5.17      5.19      0.01         0.01
  YS02001622YS02001625        5.19      5.19      5.42      0.01         0.01
  YS02001625YS02001629        5.17      5.17      5.42      0.01         0.01
  YS02163301YS02001633        5.46      5.46      5.49      0.01         0.01
  YS02163601YS02164001        5.49      5.49      5.52      0.01         0.01
  YS02164001YS02001641        5.49      5.49      5.50      0.01         0.02
  YS02001641YS02001644        5.50      5.50      5.50      1.47         1.53
  YS02001647YS02001649        5.40      5.40      5.52      0.01         0.01
  YS02006553YS02006556        1.41      1.41      1.70      0.01         0.01
  YS02006556YS02006558        1.53      1.53      1.77      0.01         0.01
  YS02001907YS02006553        2.24      2.24      2.45      0.01         0.01
  YS02006558YS02006561        1.11      1.37      1.11      2.09         1.11
  YS02001633YS02163601        5.48      5.48      5.52      0.01         0.01
  YS02001644YS02001647        5.40      5.40      5.50      0.01         0.01
  YS02001745YS02001748        0.01      0.01      5.05      0.01         0.01
  YS02001748YS02001751        5.07      5.07      5.16      0.01         0.01
  YS02001751YS02001754        5.16      5.16      5.30      0.01         0.01
  YS02001754YS02001757        5.35      5.35      5.62      0.01         0.01
  YS02001882YS02001884        1.03      1.03      1.06      0.01         0.01
  YS02001884YS02001887        1.11      1.11      1.14      0.01         0.01
  YS02001890YS02001895        1.00      1.00      1.23      0.01         0.01
  YS02001895YS02001898        0.99      0.99      1.00      0.01         0.01
  YS02001898YS02001901        1.01      1.01      1.11      0.01         0.01
  YS02001901YS02001904        1.09      1.09      1.11      0.01         0.01
  YS02001904YS02001907        1.09      1.09      1.73      0.01         0.01
  YS02001887YS02001890        1.17      1.17      1.19      0.07         0.01
  YS02001652YS02001649        5.41      5.41      5.52      0.01         0.01
  YS02001655YS02001652        5.18      5.18      5.33      0.01         0.01
  YS02001658YS02001655        5.07      5.07      5.18      0.01         0.01
  YS02001661YS02001658        0.23      0.23      5.07      0.01         0.01
  YS02001664YS02001661        0.01      0.01      1.20      0.01         0.01
  YS02001793JiankangQianchi        1.79      1.79      3.02      0.01         0.01
  YS02001757CaochengTiaoxuchi        4.87      4.87      5.62      0.01         0.01
  3                           0.01      0.01      0.01      0.01         0.01
  
  
  ***************
  Pumping Summary
  ***************
  
  ---------------------------------------------------------------------------------------------------------
                                                  Min       Avg       Max     Total     Power    % Time Off
                        Percent   Number of      Flow      Flow      Flow    Volume     Usage    Pump Curve
  Pump                 Utilized   Start-Ups       LPS       LPS       LPS  10^6 ltr     Kw-hr    Low   High
  ---------------------------------------------------------------------------------------------------------
  CC-Pump-1               70.15           5      0.00    163.59    200.00     3.215      4.53    0.0    7.5
  CC-Pump-2               63.77           5      0.00    150.48    200.00     2.722      3.93    0.0    6.6
  JK-Pump-1               91.49           5      0.00    192.61    300.00     3.895     47.91    0.0    0.0
  JK-Pump-2               89.36           6      0.00    188.82    300.00     3.718     44.46    0.0    0.0
  XR-Pump-1               95.73           6      0.00     80.45     95.00     2.137     23.46    0.0    0.0
  XR-Pump-2               95.73          11      0.00     63.99     95.00     1.881     21.38    0.0    0.0
  XR-Pump-3               95.74           4      0.00     81.40     95.00     2.280     27.06    0.0    0.0
  XR-Pump-4               93.61           5      0.00     84.01     95.00     2.223     24.38    0.0    0.0
  

  Analysis begun on:  Fri Jan  7 10:49:37 2022
  Analysis ended on:  Fri Jan  7 10:49:42 2022
  Total elapsed time: 00:00:05