
  EPA STORM WATER MANAGEMENT MODEL - VERSION 5.1 (Build 5.3.0.dev0)
  --------------------------------------------------------------

  WARNING 04: minimum elevation drop used for Conduit WS02004404WS02004405
  WARNING 03: negative offset ignored for Link YS02001904YS02001907
  
  *********************************************************
  NOTE: The summary statistics displayed in this report are
  based on results found at every computational time step,  
  not just on results from each reporting time step.
  *********************************************************
  
  ****************
  Analysis Options
  ****************
  Flow Units ............... LPS
  Process Models:
    Rainfall/Runoff ........ YES
    RDII ................... NO
    Snowmelt ............... NO
    Groundwater ............ NO
    Flow Routing ........... YES
    Ponding Allowed ........ NO
    Water Quality .......... NO
  Infiltration Method ...... HORTON
  Flow Routing Method ...... DYNWAVE
  Surcharge Method ......... EXTRAN
  Starting Date ............ 08/28/2015 08:00:00
  Ending Date .............. 08/28/2015 15:50:00
  Antecedent Dry Days ...... 8.0
  Report Time Step ......... 00:01:00
  Wet Time Step ............ 00:01:00
  Dry Time Step ............ 00:01:00
  Routing Time Step ........ 5.00 sec
  Variable Time Step ....... YES
  Maximum Trials ........... 8
  Number of Threads ........ 4
  Head Tolerance ........... 0.001500 m
  
  
  **************************        Volume         Depth
  Runoff Quantity Continuity     hectare-m            mm
  **************************     ---------       -------
  Total Precipitation ......         6.144        13.452
  Evaporation Loss .........         0.000         0.000
  Infiltration Loss ........         1.572         3.442
  Surface Runoff ...........         3.480         7.619
  Final Storage ............         1.093         2.393
  Continuity Error (%) .....        -0.016
  
  
  **************************        Volume        Volume
  Flow Routing Continuity        hectare-m      10^6 ltr
  **************************     ---------     ---------
  Dry Weather Inflow .......         0.616         6.165
  Wet Weather Inflow .......         3.479        34.789
  Groundwater Inflow .......         0.000         0.000
  RDII Inflow ..............         0.000         0.000
  External Inflow ..........         0.102         1.024
  External Outflow .........         2.514        25.145
  Flooding Loss ............         1.285        12.853
  Evaporation Loss .........         0.000         0.000
  Exfiltration Loss ........         0.000         0.000
  Initial Stored Volume ....         0.076         0.761
  Final Stored Volume ......         0.608         6.085
  Continuity Error (%) .....        -3.148
  
  
  *************************
  Highest Continuity Errors
  *************************
  Node HS02004842 (15.27%)
  Node JK-storage (-13.49%)
  Node YS02001884 (11.61%)
  Node YSB1171 (2.79%)
  Node HS02004817 (2.78%)
  
  
  ***************************
  Time-Step Critical Elements
  ***************************
  Link 3 (55.91%)
  Link WS02006252WS02006251 (34.43%)
  Link WS02006238WS02006235 (3.96%)
  Link WS02006280WS02006229 (1.30%)
  
  
  ********************************
  Highest Flow Instability Indexes
  ********************************
  Link YS02163601YS02164001 (38)
  Link YS02163301YS02001633 (38)
  Link YS02001619YS02001622 (37)
  Link YS02001629YS02163301 (37)
  Link YS02164001YS02001641 (35)
  
  
  *************************
  Routing Time Step Summary
  *************************
  Minimum Time Step           :     0.20 sec
  Average Time Step           :     0.72 sec
  Maximum Time Step           :     5.00 sec
  Percent in Steady State     :    -0.00
  Average Iterations per Step :     4.54
  Percent Not Converging      :    20.91
  
  
  ***************************
  Subcatchment Runoff Summary
  ***************************
  
  ------------------------------------------------------------------------------------------------------------------------------
                            Total      Total      Total      Total     Imperv       Perv      Total       Total     Peak  Runoff
                           Precip      Runon       Evap      Infil     Runoff     Runoff     Runoff      Runoff   Runoff   Coeff
  Subcatchment                 mm         mm         mm         mm         mm         mm         mm    10^6 ltr      LPS
  ------------------------------------------------------------------------------------------------------------------------------
  sub0                      13.45       0.00       0.00       0.89      11.25       0.05      11.30        0.01     3.67   0.840
  sub1                      13.45       0.00       0.00       1.45      10.71       0.03      10.74        0.07    24.31   0.799
  sub2                      13.45       0.00       0.00       4.95       7.56       0.02       7.58        0.07    22.93   0.564
  sub3                      13.45       0.00       0.00       4.96       7.52       0.02       7.54        0.17    51.30   0.560
  sub4                      13.45       0.00       0.00       1.46      10.54       0.02      10.56        0.22    61.94   0.785
  sub5                      13.45       0.00       0.00       0.91      11.19       0.03      11.22        0.13    43.21   0.834
  sub7                      13.45       0.00       0.00       1.17      10.98       0.04      11.03        0.04    13.69   0.820
  sub8                      13.45       0.00       0.00       1.17      10.97       0.04      11.01        0.07    25.15   0.819
  sub9                      13.45       0.00       0.00       1.17      10.97       0.04      11.01        0.05    18.81   0.818
  sub10                     13.45       0.00       0.00       1.04      11.08       0.03      11.11        0.12    42.29   0.826
  sub11                     13.45       0.00       0.00       1.04      11.10       0.04      11.14        0.13    46.68   0.828
  sub12                     13.45       0.00       0.00       1.69      10.51       0.06      10.58        0.09    35.94   0.786
  sub14                     13.45       0.00       0.00       1.17      10.97       0.04      11.01        0.10    37.02   0.818
  sub15                     13.45       0.00       0.00       4.00       8.43       0.04       8.47        0.15    51.03   0.630
  sub16                     13.45       0.00       0.00       4.38       8.09       0.06       8.15        0.09    32.58   0.606
  sub17                     13.45       0.00       0.00       4.25       8.21       0.06       8.27        0.07    26.73   0.615
  sub22                     13.45       0.00       0.00       5.74       6.88       0.04       6.92        0.44   159.06   0.514
  sub23                     13.45       0.00       0.00       4.93       7.60       0.05       7.65        0.36   133.95   0.569
  sub60                     13.45       0.00       0.00       1.61       8.73       0.00       8.74        2.65   387.96   0.649
  sub61                     13.45       0.00       0.00       2.28       8.88       0.00       8.88        2.74   483.52   0.660
  sub62                     13.45       0.00       0.00       1.07       9.65       0.00       9.66        2.97   496.42   0.718
  sub63                     13.45       0.00       0.00       3.90       7.77       0.00       7.77        2.35   446.68   0.578
  sub64                     13.45       0.00       0.00       2.01       8.38       0.00       8.38        2.55   368.35   0.623
  sub65                     13.45       0.00       0.00       1.75       8.52       0.00       8.52        2.62   373.60   0.634
  sub66                     13.45       0.00       0.00       3.90       7.19       0.00       7.19        2.21   337.96   0.535
  sub67                     13.45       0.00       0.00       1.07      10.19       0.01      10.19        3.15   622.58   0.758
  sub68                     13.45       0.00       0.00       1.88       9.34       0.01       9.34        2.87   531.38   0.694
  sub69                     13.45       0.00       0.00       2.01       9.68       0.01       9.69        2.26   503.32   0.720
  sub70                     13.45       9.89       0.00       7.67      12.93       0.26      13.20        3.02   423.72   0.565
  sub71                     13.45       0.00       0.00       1.07       9.40       0.00       9.40        2.22   347.35   0.699
  sub72                     13.45       0.00       0.00       0.94       7.49       0.00       7.50        1.53   163.23   0.557
  sub73                     13.45      12.84       0.00       8.67      14.26       0.27      14.53        3.41   375.92   0.552
  sub74                     13.45       0.00       0.00      10.09       2.88       0.00       2.89        1.15   273.25   0.215
  
  
  ******************
  Node Depth Summary
  ******************
  
  ---------------------------------------------------------------------------------
                                 Average  Maximum  Maximum  Time of Max    Reported
                                   Depth    Depth      HGL   Occurrence   Max Depth
  Node                 Type       Meters   Meters   Meters  days hr:min      Meters
  ---------------------------------------------------------------------------------
  WS02001211           JUNCTION     0.71     0.82     5.65     0  03:10        0.82
  WS02001212           JUNCTION     0.43     0.54     5.60     0  03:11        0.54
  WS02001213           JUNCTION     0.67     0.81     5.57     0  03:11        0.81
  WS02003069           JUNCTION     0.49     0.65     5.24     0  03:08        0.65
  WS02003072           JUNCTION     0.55     0.70     5.08     0  03:08        0.70
  WS02003073           JUNCTION     0.34     0.44     4.50     0  03:09        0.44
  WS02003060           JUNCTION     0.44     0.58     5.51     0  03:07        0.58
  WS02003066           JUNCTION     0.26     0.36     5.91     0  03:05        0.36
  WS02003059           JUNCTION     0.73     0.86     5.54     0  03:11        0.86
  WS02003067           JUNCTION     0.62     0.79     6.11     0  03:04        0.79
  WS02004401           JUNCTION     0.74     1.11     7.11     0  03:03        1.11
  WS02004402           JUNCTION     0.77     1.11     7.07     0  03:03        1.11
  WS02004403           JUNCTION     0.79     1.10     7.03     0  03:03        1.10
  WS02004404           JUNCTION     0.86     1.16     7.01     0  03:03        1.16
  WS02004406           JUNCTION     0.86     1.10     6.93     0  03:03        1.10
  WS02004409           JUNCTION     0.56     0.85     6.62     0  03:04        0.85
  WS02004410           JUNCTION     0.57     0.85     6.57     0  03:04        0.85
  WS02004411           JUNCTION     0.59     0.85     6.53     0  03:04        0.85
  WS02004412           JUNCTION     0.60     0.83     6.47     0  03:04        0.83
  WS02004413           JUNCTION     0.75     0.97     6.44     0  03:04        0.97
  WS02004405           JUNCTION     0.86     1.14     6.99     0  03:03        1.14
  WS02006109           JUNCTION     0.83     1.27     7.89     0  03:02        1.25
  WS02006110           JUNCTION     0.81     1.11     7.70     0  03:02        1.11
  WS02006111           JUNCTION     0.25     0.61     7.32     0  03:03        0.61
  WS02006112           JUNCTION     0.92     1.39     7.27     0  03:03        1.38
  WS02006113           JUNCTION     0.38     0.62     7.51     0  03:02        0.62
  WS02006115           JUNCTION     0.64     1.06     7.20     0  03:03        1.06
  WS02006116           JUNCTION     0.72     1.12     7.16     0  03:03        1.12
  WS02006230           JUNCTION     0.84     1.40     8.14     0  03:02        1.38
  WS02006231           JUNCTION     0.57     1.03     8.16     0  03:02        1.02
  WS02006232           JUNCTION     0.71     1.13     8.17     0  03:02        1.11
  WS02006234           JUNCTION     0.64     1.02     8.17     0  03:02        1.00
  WS02006235           JUNCTION     0.67     1.02     8.19     0  03:02        1.01
  WS02006238           JUNCTION     0.69     1.05     8.19     0  03:01        1.03
  WS02006240           JUNCTION     0.60     0.92     8.21     0  03:01        0.91
  WS02006242           JUNCTION     0.65     0.97     8.24     0  03:02        0.96
  WS02006243           JUNCTION     0.54     0.83     8.25     0  03:00        0.83
  WS02006245           JUNCTION     0.51     0.78     8.26     0  03:00        0.78
  WS02006247           JUNCTION     0.52     0.78     8.28     0  03:00        0.78
  WS02006248           JUNCTION     0.46     0.70     8.29     0  03:01        0.70
  WS02006249           JUNCTION     0.48     0.70     8.30     0  03:00        0.70
  WS02006239           JUNCTION     0.66     1.00     8.21     0  03:01        0.99
  WS02006251           JUNCTION     0.48     0.79     8.46     0  03:00        0.79
  WS02006252           JUNCTION     0.42     0.59     8.84     0  04:26        0.59
  WS02006253           JUNCTION     0.51     0.82     8.47     0  03:00        0.82
  WS02006256           JUNCTION     1.12     1.23     8.17     0  03:00        1.23
  WS02004138           JUNCTION     0.17     0.19     7.44     0  06:16        0.19
  WS02004407           JUNCTION     0.25     0.37     6.68     0  03:03        0.37
  WS02006228           JUNCTION     0.85     1.39     8.04     0  03:02        1.38
  WS02006229           JUNCTION     0.83     1.43     8.12     0  03:02        1.42
  WS02006280           JUNCTION     0.08     0.24     8.52     0  03:02        0.24
  WS02006284           JUNCTION     0.38     0.63     9.02     0  03:02        0.62
  WS02006287           JUNCTION     0.11     0.37     9.32     0  03:02        0.37
  WSF200               JUNCTION     0.25     0.40     5.63     0  03:05        0.40
  HS02004901           JUNCTION     0.14     0.35    10.17     0  03:01        0.35
  HS02004881           JUNCTION     0.01     0.05     9.08     0  03:01        0.05
  HS02004876           JUNCTION     0.05     0.15     9.18     0  03:01        0.15
  HS02004870           JUNCTION     0.02     0.09     9.37     0  03:01        0.09
  HS02004862           JUNCTION     0.02     0.10     9.49     0  03:01        0.10
  HS02004856           JUNCTION     0.08     0.15     9.57     0  03:01        0.15
  HS02004852           JUNCTION     0.01     0.07     9.58     0  03:02        0.07
  HS02004848           JUNCTION     0.01     0.06     9.67     0  03:01        0.06
  HS02004842           JUNCTION     0.33     0.40     9.67     0  03:01        0.40
  HS02004837           JUNCTION     0.03     0.09     9.67     0  03:01        0.09
  HS02004830           JUNCTION     0.04     0.10     9.57     0  03:01        0.10
  HS02004824           JUNCTION     0.03     0.11     9.51     0  03:02        0.11
  HS02004817           JUNCTION     0.45     0.67     9.52     0  03:02        0.67
  HS02004807           JUNCTION     0.14     0.34     9.51     0  03:02        0.34
  HS02004802           JUNCTION     0.17     0.38     9.50     0  03:02        0.38
  HS02004799           JUNCTION     0.13     0.43     9.65     0  03:01        0.43
  HS02004792           JUNCTION     0.04     0.20     9.72     0  03:01        0.19
  HS02004788           JUNCTION     0.03     0.14    10.04     0  03:02        0.14
  HS02004785           JUNCTION     0.05     0.23    10.13     0  03:02        0.23
  HS02004777           JUNCTION     0.16     0.37    10.17     0  03:01        0.37
  HS02004770           JUNCTION     0.13     0.34    10.17     0  03:01        0.34
  HS02004480           JUNCTION     0.09     0.35     9.59     0  03:01        0.35
  HS02004479           JUNCTION     0.13     0.39     9.60     0  03:01        0.39
  HS02004478           JUNCTION     0.07     0.26     9.48     0  03:01        0.26
  YS02001745           JUNCTION     0.69     0.90     8.41     0  03:33        0.89
  YS02001748           JUNCTION     1.08     2.27     9.35     0  02:45        1.34
  YS02001751           JUNCTION     1.26     2.20     9.08     0  02:45        1.54
  YS02001754           JUNCTION     1.51     2.16     8.76     0  02:45        1.82
  YS02001762           JUNCTION     1.71     2.14     8.54     0  02:45        2.03
  YS02001765           JUNCTION     1.67     2.10     8.55     0  02:45        1.97
  YS02001767           JUNCTION     1.63     2.03     8.52     0  02:45        1.93
  YS02001770           JUNCTION     1.63     1.95     8.44     0  02:45        1.91
  YS02001774           JUNCTION     1.69     2.01     8.43     0  02:47        1.97
  YS02001779           JUNCTION     1.44     1.68     8.37     0  02:45        1.68
  YS02001882           JUNCTION     0.58     1.70     8.41     0  02:53        1.62
  YS02001884           JUNCTION     0.68     1.78     8.40     0  02:53        1.72
  YS02001759           JUNCTION     1.75     2.14     8.50     0  02:45        2.06
  YS02001887           JUNCTION     0.75     1.83     8.37     0  02:53        1.81
  YS02001890           JUNCTION     0.78     1.81     8.32     0  02:53        1.81
  YS02001898           JUNCTION     0.55     1.57     8.31     0  02:53        1.56
  YS02001901           JUNCTION     0.67     1.69     8.29     0  02:53        1.67
  YS02001904           JUNCTION     0.65     1.64     8.27     0  02:53        1.63
  YS02001907           JUNCTION     0.97     1.96     8.25     0  02:53        1.96
  YS02001910           JUNCTION     0.77     1.98     8.48     0  02:55        1.79
  YS02001915           JUNCTION     0.56     1.93     8.65     0  02:55        1.61
  YS02001918           JUNCTION     0.31     1.81     8.88     0  02:55        1.33
  YS02001619           JUNCTION     1.23     1.61     8.54     0  02:40        1.60
  YS02001629           JUNCTION     1.58     1.85     8.40     0  02:41        1.85
  YS02001641           JUNCTION     1.68     1.97     8.41     0  02:46        1.93
  YS02001644           JUNCTION     1.68     1.92     8.35     0  02:45        1.92
  YS02001652           JUNCTION     1.53     2.16     8.76     0  02:53        2.12
  YS02001655           JUNCTION     1.29     2.20     9.05     0  02:40        2.07
  YS02001920           JUNCTION     0.41     2.07     9.08     0  02:55        1.43
  YS02001923           JUNCTION     0.24     2.03     9.29     0  02:55        1.21
  YS02001926           JUNCTION     0.29     1.67     9.11     0  02:55        0.97
  YS02001929           JUNCTION     0.17     0.97     8.67     0  02:55        0.74
  YS02001658           JUNCTION     1.02     2.30     9.44     0  02:42        1.85
  YS02001661           JUNCTION     0.80     2.46     9.86     0  02:55        1.58
  YS02001664           JUNCTION     0.35     0.57     8.49     0  04:02        0.56
  YS02001622           JUNCTION     1.25     1.62     8.52     0  02:41        1.57
  YS02001633           JUNCTION     1.67     2.00     8.45     0  02:46        1.94
  YS02001649           JUNCTION     1.72     2.05     8.44     0  02:44        2.05
  YS02001757           JUNCTION     1.84     2.21     8.47     0  02:45        2.17
  YS02001895           JUNCTION     0.54     1.57     8.32     0  02:53        1.56
  YS02001625           JUNCTION     1.53     1.78     8.38     0  02:41        1.78
  YS02163301           JUNCTION     1.61     1.91     8.43     0  02:42        1.88
  YS02163601           JUNCTION     1.72     2.06     8.46     0  02:46        1.98
  YS02164001           JUNCTION     1.66     1.99     8.44     0  02:46        1.91
  YS02001647           JUNCTION     1.51     1.80     8.41     0  03:07        1.79
  YSB1154              JUNCTION     0.27     0.54     9.60     0  03:01        0.54
  YSB6556              JUNCTION     0.16     0.43     9.60     0  03:02        0.43
  YSB1174              JUNCTION     0.22     0.49     9.60     0  03:01        0.49
  YSB1171              JUNCTION     0.42     0.69     9.60     0  03:01        0.69
  YS02006553           JUNCTION     0.98     2.17     8.46     0  02:53        1.96
  YS02006561           JUNCTION     0.34     1.95     8.61     0  02:53        1.09
  YS02006556           JUNCTION     0.94     2.39     8.70     0  02:53        1.93
  YS02006558           JUNCTION     0.99     2.50     8.77     0  02:53        1.96
  YS02001783           JUNCTION     0.56     2.26     8.40     0  02:53        1.47
  YS02001784           JUNCTION     0.58     2.18     8.25     0  02:53        1.41
  YS02001786           JUNCTION     0.52     2.12     8.15     0  02:53        1.26
  YS02001788           JUNCTION     0.44     2.28     8.26     0  02:53        1.13
  YS02001790           JUNCTION     0.56     1.96     7.60     0  02:52        1.29
  YS02001791           JUNCTION     0.52     2.32     7.79     0  02:52        1.27
  YS02001793           JUNCTION     0.69     2.00     6.84     0  02:52        1.80
  WS02004139           JUNCTION     0.65     0.76     5.67     0  03:10        0.76
  WSC                  OUTFALL      0.34     0.44     1.11     0  03:09        0.44
  3                    OUTFALL      0.14     0.23     6.23     0  03:00        0.23
  4                    OUTFALL      0.04     0.20     7.20     0  03:00        0.20
  5                    OUTFALL      0.00     0.00     5.00     0  00:00        0.00
  JK-storage           STORAGE      2.45     5.80     6.60     0  02:53        5.80
  CC-storage           STORAGE      1.06     1.40     8.40     0  03:33        1.40
  XR-storage           STORAGE      6.46     7.72     5.72     0  03:02        7.72
  
  
  *******************
  Node Inflow Summary
  *******************
  
  -------------------------------------------------------------------------------------------------
                                  Maximum  Maximum                  Lateral       Total        Flow
                                  Lateral    Total  Time of Max      Inflow      Inflow     Balance
                                   Inflow   Inflow   Occurrence      Volume      Volume       Error
  Node                 Type           LPS      LPS  days hr:min    10^6 ltr    10^6 ltr     Percent
  -------------------------------------------------------------------------------------------------
  WS02001211           JUNCTION      7.35   387.95     0  02:40       0.207        8.24       0.459
  WS02001212           JUNCTION      0.00   388.28     0  02:40           0         8.2       0.253
  WS02001213           JUNCTION      0.00   388.55     0  02:40           0        8.18       0.299
  WS02003069           JUNCTION      0.32  1139.70     0  03:07     0.00902        17.7       0.190
  WS02003072           JUNCTION      0.00  1139.47     0  03:08           0        17.7       0.228
  WS02003073           JUNCTION      1.82  1141.35     0  03:09      0.0514        17.7       0.263
  WS02003060           JUNCTION     16.53  1139.72     0  03:07       0.466        17.8       0.179
  WS02003066           JUNCTION      0.00   806.32     0  03:05           0        9.19       0.054
  WS02003059           JUNCTION      0.00   389.17     0  04:50           0        8.16       0.496
  WS02003067           JUNCTION      0.00   805.94     0  03:05           0         9.2       0.110
  WS02004401           JUNCTION      0.00   808.97     0  03:03           0        9.45       0.243
  WS02004402           JUNCTION      0.00   809.01     0  03:03           0        9.43       0.227
  WS02004403           JUNCTION      0.00   809.04     0  03:03           0        9.41       0.206
  WS02004404           JUNCTION      0.16   809.21     0  03:03     0.00457        9.39       0.154
  WS02004406           JUNCTION      0.00   809.25     0  03:03           0        9.36       0.373
  WS02004409           JUNCTION      0.00   809.09     0  03:03           0        9.31       0.199
  WS02004410           JUNCTION      0.00   807.56     0  03:04           0        9.29       0.223
  WS02004411           JUNCTION      0.00   806.57     0  03:04           0        9.27       0.227
  WS02004412           JUNCTION      0.00   806.03     0  03:04           0        9.25       0.242
  WS02004413           JUNCTION      0.00   805.88     0  03:04           0        9.23       0.352
  WS02004405           JUNCTION      0.04   809.25     0  03:03     0.00107        9.38       0.229
  WS02006109           JUNCTION      1.23   791.77     0  03:02      0.0347        9.51       0.235
  WS02006110           JUNCTION      0.00   791.77     0  03:02           0        9.49       0.218
  WS02006111           JUNCTION      0.00   789.72     0  03:02           0        9.46       0.050
  WS02006112           JUNCTION     26.73   808.69     0  03:03      0.0709        9.52       0.323
  WS02006113           JUNCTION      0.00   791.74     0  03:02           0        9.47       0.111
  WS02006115           JUNCTION      0.00   808.72     0  03:03           0        9.49       0.232
  WS02006116           JUNCTION      0.00   808.88     0  03:03           0        9.47       0.219
  WS02006230           JUNCTION     10.28   400.80     0  04:20        0.29        7.42       0.174
  WS02006231           JUNCTION      0.00   391.14     0  05:02           0        7.14       0.186
  WS02006232           JUNCTION      0.00   391.18     0  05:02           0        7.16       0.236
  WS02006234           JUNCTION      0.00   392.81     0  05:01           0        7.17       0.122
  WS02006235           JUNCTION      0.00   392.71     0  05:01           0        7.22       0.155
  WS02006238           JUNCTION      0.00   344.57     0  06:20           0         5.2       0.158
  WS02006240           JUNCTION      0.00   339.39     0  06:20           0        5.19       0.242
  WS02006242           JUNCTION      0.00   341.02     0  02:08           0        5.19       0.293
  WS02006243           JUNCTION      0.00   354.67     0  02:07           0        5.19       0.071
  WS02006245           JUNCTION      0.00   363.25     0  02:07           0         5.2       0.194
  WS02006247           JUNCTION      0.00   370.00     0  02:07           0         5.2       0.137
  WS02006248           JUNCTION      0.00   376.29     0  02:07           0        5.21       0.086
  WS02006249           JUNCTION      0.00   519.89     0  03:00           0        6.14       0.164
  WS02006239           JUNCTION      0.00   343.17     0  06:20           0        5.19       0.239
  WS02006251           JUNCTION      0.08   521.38     0  03:00     0.00217        6.18       0.148
  WS02006252           JUNCTION      0.00   400.00     0  02:06           0        5.74       0.008
  WS02006253           JUNCTION      3.67   134.78     0  03:01     0.00915       0.436       0.898
  WS02006256           JUNCTION      0.00   600.00     0  02:30           0        8.61       0.037
  WS02004138           JUNCTION      0.00   380.00     0  02:30           0        8.07       0.057
  WS02004407           JUNCTION      0.00   809.29     0  03:03           0        9.32       0.088
  WS02006228           JUNCTION      0.00   790.60     0  03:02           0        9.49       0.167
  WS02006229           JUNCTION      0.00   791.64     0  03:02           0         9.5       0.127
  WS02006280           JUNCTION      0.00   611.95     0  03:02           0         2.1       0.003
  WS02006284           JUNCTION      0.10   611.06     0  03:02      0.0027         2.1       0.059
  WS02006287           JUNCTION      0.00   609.83     0  03:02           0         2.1       0.034
  WSF200               JUNCTION      0.00   806.47     0  03:05           0        9.18       0.054
  HS02004901           JUNCTION     32.58    32.58     0  03:01      0.0853      0.0856       2.108
  HS02004881           JUNCTION     13.69   131.68     0  03:01      0.0372       0.403       0.068
  HS02004876           JUNCTION     24.31   119.37     0  03:01      0.0714       0.367       0.153
  HS02004870           JUNCTION     25.15    96.63     0  03:01      0.0703       0.295       0.038
  HS02004862           JUNCTION     23.13    73.48     0  03:01      0.0763       0.225       0.080
  HS02004856           JUNCTION     18.81    51.88     0  03:01      0.0529        0.15       0.973
  HS02004852           JUNCTION      0.00    35.11     0  03:01           0      0.0975       0.061
  HS02004848           JUNCTION     51.30    51.30     0  03:01        0.17        0.17       0.031
  HS02004842           JUNCTION      0.00    15.11     0  03:01           0      0.0852      18.024
  HS02004837           JUNCTION     48.64    62.30     0  03:01       0.302       0.374       0.218
  HS02004830           JUNCTION      0.15    61.39     0  03:01     0.00423       0.364       0.341
  HS02004824           JUNCTION     61.99   121.77     0  03:01       0.222       0.584       0.093
  HS02004817           JUNCTION      0.60   117.99     0  03:02      0.0169       0.601       2.855
  HS02004807           JUNCTION     46.68   158.06     0  03:01       0.129       0.713       0.602
  HS02004802           JUNCTION      0.00   156.91     0  03:03           0       0.709       0.571
  HS02004799           JUNCTION     37.02   389.10     0  03:01       0.105        1.19       0.207
  HS02004792           JUNCTION    159.34   356.46     0  03:01       0.445        1.08       0.039
  HS02004788           JUNCTION     52.70   202.58     0  03:02       0.193       0.638       0.062
  HS02004785           JUNCTION      0.15   157.28     0  03:01     0.00423       0.447       0.112
  HS02004777           JUNCTION      0.03   160.02     0  03:01    0.000846       0.447       1.175
  HS02004770           JUNCTION    133.95   163.77     0  03:01       0.365       0.449       0.699
  HS02004480           JUNCTION      0.00   456.69     0  03:01           0         1.4       0.084
  HS02004479           JUNCTION      0.00    72.19     0  03:02           0       0.228       0.322
  HS02004478           JUNCTION      0.00   609.30     0  03:02           0         2.1       0.019
  YS02001745           JUNCTION    387.96   449.79     0  02:45        2.65        2.66       0.381
  YS02001748           JUNCTION      0.04   639.42     0  02:45     0.00127        2.65       0.883
  YS02001751           JUNCTION      0.01   398.78     0  03:01     0.00031        2.62       0.909
  YS02001754           JUNCTION      0.26   399.08     0  03:01     0.00733         2.6       0.966
  YS02001762           JUNCTION      0.00   378.27     0  02:54           0        1.98       1.076
  YS02001765           JUNCTION      0.00   378.09     0  02:54           0        1.99       1.247
  YS02001767           JUNCTION      0.54   378.18     0  02:54      0.0151        2.01       1.821
  YS02001770           JUNCTION    496.57   496.57     0  03:01        2.97        3.16       1.021
  YS02001774           JUNCTION      0.00   443.11     0  03:35           0        1.32       1.938
  YS02001779           JUNCTION      0.01   443.33     0  03:35    0.000141        1.29       1.209
  YS02001882           JUNCTION      0.00    29.39     0  02:49           0      0.0191      14.552
  YS02001884           JUNCTION      0.00    28.68     0  02:47           0      0.0541      13.140
  YS02001759           JUNCTION    483.56   762.55     0  02:55        2.74        4.51       0.512
  YS02001887           JUNCTION    623.03   623.20     0  03:01        3.16        3.19       0.274
  YS02001890           JUNCTION      0.00   623.15     0  03:01           0        3.14       0.302
  YS02001898           JUNCTION      0.00   516.99     0  03:02           0        3.09       0.111
  YS02001901           JUNCTION      0.00   516.97     0  03:02           0        3.08       0.234
  YS02001904           JUNCTION      0.00   516.94     0  03:04           0        3.08       0.213
  YS02001907           JUNCTION      0.00  1173.19     0  02:56           0        6.88       0.356
  YS02001910           JUNCTION      0.00   666.35     0  02:56           0        3.81       0.311
  YS02001915           JUNCTION    347.37   666.27     0  02:56        2.22        3.85       0.166
  YS02001918           JUNCTION      0.00   381.46     0  02:56           0        1.65       0.121
  YS02001619           JUNCTION    337.96   337.96     0  03:01        2.21        2.21       0.554
  YS02001629           JUNCTION      0.00   221.16     0  02:49           0        1.57       1.858
  YS02001641           JUNCTION      0.00   465.39     0  02:49           0        4.09       0.520
  YS02001644           JUNCTION    368.39  1167.53     0  03:35        2.55        8.46       0.310
  YS02001652           JUNCTION      0.00   484.35     0  03:01           0         2.3       1.013
  YS02001655           JUNCTION      0.15   484.12     0  03:01     0.00434        2.33       1.091
  YS02001920           JUNCTION      2.87   381.35     0  02:56      0.0809        1.64       0.187
  YS02001923           JUNCTION      0.04   314.58     0  02:56     0.00106        1.55       0.041
  YS02001926           JUNCTION      0.05   263.53     0  02:54     0.00147        1.54       0.227
  YS02001929           JUNCTION    163.23   235.31     0  02:55        1.53        1.53       0.036
  YS02001658           JUNCTION      0.00   600.59     0  02:42           0        2.35       0.950
  YS02001661           JUNCTION      0.00   737.55     0  02:59           0        3.06      -0.034
  YS02001664           JUNCTION    446.68   446.68     0  03:01        2.35        3.06       0.192
  YS02001622           JUNCTION      0.00   338.07     0  03:01           0        2.19       1.464
  YS02001633           JUNCTION    373.80   465.91     0  02:49        2.63        4.14       0.784
  YS02001649           JUNCTION      0.00   985.65     0  02:50           0        5.09       0.733
  YS02001757           JUNCTION      0.00  1919.57     0  02:51           0          10       0.927
  YS02001895           JUNCTION      0.00   516.90     0  03:02           0        3.09       0.166
  YS02001625           JUNCTION      0.00   338.19     0  03:01           0        2.16       1.815
  YS02163301           JUNCTION      0.00   220.99     0  02:49           0        1.54       1.582
  YS02163601           JUNCTION      0.11   465.89     0  02:49      0.0031        4.11       0.738
  YS02164001           JUNCTION      0.00   465.72     0  02:49           0        4.09       0.495
  YS02001647           JUNCTION      0.00   707.00     0  02:49           0        3.92       0.731
  YSB1154              JUNCTION     43.21    43.21     0  03:01       0.127       0.128       1.145
  YSB6556              JUNCTION      0.00    41.77     0  03:01           0       0.129       0.980
  YSB1174              JUNCTION     35.94    35.94     0  03:01      0.0924      0.0931       1.403
  YSB1171              JUNCTION      0.00    73.33     0  03:01           0       0.227       2.865
  YS02006553           JUNCTION      0.00   676.73     0  02:52           0        6.18       0.256
  YS02006561           JUNCTION      0.00  1068.35     0  02:53           0        9.02       0.007
  YS02006556           JUNCTION      0.00   676.55     0  02:52           0        6.18       0.187
  YS02006558           JUNCTION    532.26  1068.48     0  02:52         2.9        9.05       0.062
  YS02001783           JUNCTION      0.00  1053.21     0  02:52           0        9.02       0.029
  YS02001784           JUNCTION      1.06  1054.24     0  02:52      0.0299        9.05       0.045
  YS02001786           JUNCTION      0.06  1054.16     0  02:52     0.00159        9.04       0.041
  YS02001788           JUNCTION      0.07  1037.90     0  02:53       0.002        9.04       0.024
  YS02001790           JUNCTION      0.15  1023.56     0  02:52     0.00437        9.04       0.032
  YS02001791           JUNCTION      0.00  1070.99     0  02:51           0        9.04       0.011
  YS02001793           JUNCTION      0.00   970.62     0  03:01           0        9.05       0.007
  WS02004139           JUNCTION      0.32   380.32     0  06:16     0.00905        8.07       0.477
  WSC                  OUTFALL       0.00  1141.57     0  03:09           0        17.7       0.000
  3                    OUTFALL       0.00   585.68     0  03:00           0        6.55       0.000
  4                    OUTFALL       0.00   326.44     0  03:00           0       0.926       0.000
  5                    OUTFALL       0.00     0.00     0  00:00           0           0       0.000 ltr
  JK-storage           STORAGE       0.00   978.21     0  05:11           0         9.2     -11.887
  CC-storage           STORAGE       0.00  1919.06     0  02:51           0        9.17      -0.196
  XR-storage           STORAGE     849.17   849.17     0  03:01        10.2        10.8      -0.002
  
  
  **********************
  Node Surcharge Summary
  **********************
  
  Surcharging occurs when water rises above the top of the highest conduit.
  ---------------------------------------------------------------------
                                               Max. Height   Min. Depth
                                   Hours       Above Crown    Below Rim
  Node                 Type      Surcharged         Meters       Meters
  ---------------------------------------------------------------------
  WS02004401           JUNCTION        0.30          0.112        1.548
  WS02004402           JUNCTION        0.36          0.114        1.626
  WS02004403           JUNCTION        0.37          0.103        1.927
  WS02004404           JUNCTION        0.57          0.155        2.625
  WS02004406           JUNCTION        0.51          0.105        2.345
  WS02004405           JUNCTION        0.54          0.136        2.664
  WS02006109           JUNCTION        3.50          0.448        1.372
  WS02006110           JUNCTION        1.19          0.204        1.646
  WS02006112           JUNCTION        1.26          0.388        1.292
  WS02006115           JUNCTION        0.13          0.055        2.195
  WS02006116           JUNCTION        0.15          0.062        2.228
  WS02006230           JUNCTION        0.54          0.315        1.255
  WS02006231           JUNCTION        0.74          0.324        1.206
  WS02006232           JUNCTION        4.03          0.429        1.051
  WS02006234           JUNCTION        1.00          0.296        0.944
  WS02006235           JUNCTION        2.65          0.314        0.976
  WS02006238           JUNCTION        3.29          0.326        1.104
  WS02006240           JUNCTION        0.89          0.212        1.178
  WS02006242           JUNCTION        2.48          0.237        0.583
  WS02006243           JUNCTION        0.34          0.118        0.652
  WS02006245           JUNCTION        0.21          0.070        0.780
  WS02006247           JUNCTION        0.20          0.066        0.694
  WS02006239           JUNCTION        1.54          0.256        1.034
  WS02006252           JUNCTION        3.40          0.193        0.907
  WS02006228           JUNCTION        3.22          0.561        1.639
  YS02001748           JUNCTION        5.03          1.190        0.000
  YS02001751           JUNCTION        5.13          1.200        0.000
  YS02001754           JUNCTION        5.29          1.106        0.044
  YS02001762           JUNCTION        5.51          1.144        0.006
  YS02001765           JUNCTION        5.49          1.096        0.004
  YS02001767           JUNCTION        5.46          1.028        0.002
  YS02001770           JUNCTION        5.43          0.920        0.000
  YS02001774           JUNCTION        5.50          1.009        0.041
  YS02001779           JUNCTION        5.29          0.680        0.000
  YS02001882           JUNCTION        0.99          0.697        0.133
  YS02001884           JUNCTION        1.03          0.723        0.147
  YS02001759           JUNCTION        5.54          1.140        0.070
  YS02001887           JUNCTION        1.12          0.781        0.169
  YS02001890           JUNCTION        1.15          0.760        0.000
  YS02001898           JUNCTION        0.95          0.544        0.196
  YS02001901           JUNCTION        1.08          0.686        0.184
  YS02001904           JUNCTION        1.06          0.641        0.209
  YS02001907           JUNCTION        1.66          0.950        0.000
  YS02001910           JUNCTION        1.20          0.975        0.125
  YS02001915           JUNCTION        0.98          0.927        0.073
  YS02001918           JUNCTION        0.74          0.810        0.000
  YS02001619           JUNCTION        5.15          0.610        0.000
  YS02001629           JUNCTION        5.16          0.470        0.000
  YS02001641           JUNCTION        5.50          0.972        0.128
  YS02001644           JUNCTION        5.50          0.920        0.000
  YS02001652           JUNCTION        5.30          1.130        0.000
  YS02001655           JUNCTION        5.16          1.200        0.000
  YS02001920           JUNCTION        0.77          1.071        0.069
  YS02001923           JUNCTION        0.01          0.820        0.000
  YS02001926           JUNCTION        0.01          0.667        0.233
  YS02001658           JUNCTION        5.06          1.300        0.000
  YS02001661           JUNCTION        0.25          1.390        0.000
  YS02001622           JUNCTION        5.16          0.620        0.000
  YS02001633           JUNCTION        5.48          0.978        0.082
  YS02001649           JUNCTION        5.52          1.050        0.000
  YS02001757           JUNCTION        5.62          1.210        0.000
  YS02001895           JUNCTION        0.96          0.573        0.177
  YS02001625           JUNCTION        5.31          0.780        0.000
  YS02163301           JUNCTION        5.45          0.914        0.116
  YS02163601           JUNCTION        5.52          1.058        0.022
  YS02164001           JUNCTION        5.49          0.985        0.115
  YS02001647           JUNCTION        5.31          0.802        0.098
  YS02006553           JUNCTION        1.70          1.173        0.017
  YS02006561           JUNCTION        0.84          1.150        0.000
  YS02006556           JUNCTION        1.41          1.350        0.000
  YS02006558           JUNCTION        1.37          1.400        0.000
  YS02001783           JUNCTION        1.36          1.463        0.137
  YS02001784           JUNCTION        1.38          1.384        0.106
  YS02001786           JUNCTION        1.27          1.323        0.107
  YS02001788           JUNCTION        1.27          1.480        0.000
  YS02001790           JUNCTION        1.95          1.157        0.000
  YS02001791           JUNCTION        2.11          1.518        0.402
  YS02001793           JUNCTION        2.17          1.004        1.596
  
  
  *********************
  Node Flooding Summary
  *********************
  
  Flooding refers to all water that overflows a node, whether it ponds or not.
  --------------------------------------------------------------------------
                                                             Total   Maximum
                                 Maximum   Time of Max       Flood    Ponded
                        Hours       Rate    Occurrence      Volume     Depth
  Node                 Flooded       LPS   days hr:min    10^6 ltr    Meters
  --------------------------------------------------------------------------
  YS02001748              0.01    372.05      0  02:45       0.001     0.000
  YS02001751              0.01     33.79      0  02:45       0.000     0.000
  YS02001770              0.01      4.96      0  02:47       0.000     0.000
  YS02001779              2.41    443.18      0  03:35       1.270     0.000
  YS02001890              0.23    106.94      0  03:01       0.038     0.000
  YS02001907              0.60    663.68      0  03:00       0.692     0.000
  YS02001918              0.01     25.52      0  02:55       0.000     0.000
  YS02001619              0.01     33.36      0  02:40       0.000     0.000
  YS02001629              0.01     37.69      0  02:43       0.000     0.000
  YS02001644              3.96   1167.46      0  03:35       6.364     0.000
  YS02001652              0.01     23.35      0  02:59       0.000     0.000
  YS02001655              0.01    118.23      0  02:40       0.000     0.000
  YS02001923              0.01     85.22      0  02:55       0.000     0.000
  YS02001658              0.01    164.20      0  02:44       0.000     0.000
  YS02001661              0.01    179.59      0  02:59       0.001     0.000
  YS02001622              0.01     37.68      0  02:42       0.000     0.000
  YS02001649              0.11     50.17      0  02:59       0.006     0.000
  YS02001757              0.01     14.47      0  02:46       0.000     0.000
  YS02001625              1.17    317.71      0  03:01       0.558     0.000
  YS02006561              0.01     69.25      0  02:53       0.000     0.000
  YS02006556              0.01      9.98      0  02:53       0.000     0.000
  YS02006558              0.01     10.52      0  02:53       0.000     0.000
  YS02001788              0.01    134.15      0  02:53       0.000     0.000
  YS02001790              0.01    144.59      0  02:52       0.000     0.000
  JK-storage              1.63    665.96      0  03:10       1.832     0.000
  XR-storage              3.00    521.36      0  03:02       2.091     0.000
  
  
  **********************
  Storage Volume Summary
  **********************
  
  --------------------------------------------------------------------------------------------------
                         Average     Avg  Evap Exfil       Maximum     Max    Time of Max    Maximum
                          Volume    Pcnt  Pcnt  Pcnt        Volume    Pcnt     Occurrence    Outflow
  Storage Unit           1000 m3    Full  Loss  Loss       1000 m3    Full    days hr:min        LPS
  --------------------------------------------------------------------------------------------------
  JK-storage               0.123      42     0     0         0.291     100       0  02:53     614.06
  CC-storage               2.964      19     0     0         3.912      25       0  03:33     400.00
  XR-storage               0.776      84     0     0         0.926     100       0  03:02     380.00
  
  
  ***********************
  Outfall Loading Summary
  ***********************
  
  -----------------------------------------------------------
                         Flow       Avg       Max       Total
                         Freq      Flow      Flow      Volume
  Outfall Node           Pcnt       LPS       LPS    10^6 ltr
  -----------------------------------------------------------
  WSC                   99.99    717.38   1141.57      17.668
  3                     95.92    309.88    585.68       6.551
  4                     59.90     69.70    326.44       0.926
  5                      0.00      0.00      0.00       0.000
  -----------------------------------------------------------
  System                63.96   1096.95   1927.70      25.145
  
  
  ********************
  Link Flow Summary
  ********************
  
  -----------------------------------------------------------------------------
                                 Maximum  Time of Max   Maximum    Max/    Max/
                                  |Flow|   Occurrence   |Veloc|    Full    Full
  Link                 Type          LPS  days hr:min     m/sec    Flow   Depth
  -----------------------------------------------------------------------------
  WS02003066WSF200     CONDUIT    806.47     0  03:05      2.91    0.14    0.29
  WS02006287WS02006284 CONDUIT    610.96     0  03:02      2.31    0.28    0.37
  WS02006284WS02006280 CONDUIT    611.95     0  03:02      2.55    0.26    0.35
  WS02006280WS02006229 CONDUIT    611.97     0  03:02      4.12    0.13    0.25
  WS02006229WS02006228 CONDUIT    790.60     0  03:02      1.57    2.62    1.00
  WS02006256WS02006235 CONDUIT    166.25     0  00:01      2.58    1.76    1.00
  WS02006253WS02006251 CONDUIT    141.40     0  03:01      0.45    0.42    1.00
  WS02006252WS02006251 CONDUIT    400.56     0  06:19      3.19    1.47    1.00
  WS02006251WS02006249 CONDUIT    519.89     0  03:00      1.35    1.50    1.00
  WS02006249WS02006248 CONDUIT    376.29     0  02:07      1.21    2.06    0.99
  WS02006248WS02006247 CONDUIT    370.00     0  02:07      1.19    0.81    1.00
  WS02006247WS02006245 CONDUIT    363.25     0  02:07      1.15    2.88    1.00
  WS02006245WS02006243 CONDUIT    354.67     0  02:07      1.19    1.05    1.00
  WS02006243WS02006242 CONDUIT    341.02     0  02:08      1.02    0.73    1.00
  WS02006242WS02006240 CONDUIT    339.39     0  06:20      0.91    1.35    1.00
  WS02006240WS02006239 CONDUIT    343.17     0  06:20      0.94    1.08    1.00
  WS02006239WS02006238 CONDUIT    344.57     0  06:20      0.91    1.10    1.00
  WS02006238WS02006235 CONDUIT    344.84     0  06:20      1.25    0.77    1.00
  WS02006235WS02006234 CONDUIT    392.81     0  05:01      1.04    4.14    1.00
  WS02006234WS02006232 CONDUIT    391.18     0  05:02      1.13    0.79    1.00
  WS02006232WS02006231 CONDUIT    391.14     0  05:02      1.06    0.82    1.00
  WS02006231WS02006230 CONDUIT    390.52     0  04:20      1.35    5.92    1.00
  WS02006230WS02006229 CONDUIT    400.95     0  04:20      1.04    8.92    1.00
  WS02006228WS02006109 CONDUIT    790.54     0  03:02      1.57    3.45    1.00
  WS02006116WS02004401 CONDUIT    808.97     0  03:03      1.03    1.12    1.00
  WS02006115WS02006116 CONDUIT    808.88     0  03:03      1.03    1.04    1.00
  WS02006113WS02006111 CONDUIT    789.72     0  03:02      2.60    0.95    0.77
  WS02006112WS02006115 CONDUIT    808.72     0  03:03      1.03    0.48    1.00
  WS02006111WS02006112 CONDUIT    790.72     0  03:03      1.71    0.38    0.88
  WS02006110WS02006113 CONDUIT    791.74     0  03:02      1.68    0.72    0.88
  WS02006109WS02006110 CONDUIT    791.77     0  03:02      1.58    1.52    1.00
  WS02004411WS02004412 CONDUIT    806.03     0  03:04      1.14    1.14    0.84
  WS02004401WS02004402 CONDUIT    809.01     0  03:03      1.03    0.97    1.00
  WS02004413WS02003067 CONDUIT    805.94     0  03:05      1.40    0.35    0.69
  WS02004412WS02004413 CONDUIT    805.88     0  03:04      1.08    0.54    0.90
  WS02004410WS02004411 CONDUIT    806.57     0  03:04      1.14    1.10    0.85
  WS02004409WS02004410 CONDUIT    807.56     0  03:04      1.13    1.04    0.85
  WS02004407WS02004409 CONDUIT    809.09     0  03:03      1.62    0.29    0.61
  WS02004406WS02004407 CONDUIT    809.29     0  03:03      1.42    0.36    0.68
  WS02004405WS02004406 CONDUIT    809.25     0  03:03      1.03    1.60    1.00
  WS02004404WS02004405 CONDUIT    809.21     0  03:03      1.03    7.93    1.00
  WS02004403WS02004404 CONDUIT    809.05     0  03:03      1.03    0.58    1.00
  WS02004402WS02004403 CONDUIT    809.04     0  03:03      1.03    1.16    1.00
  WS02004139WS02001211 CONDUIT    380.60     0  02:40      0.69    0.48    0.61
  WS02004138WS02004139 CONDUIT    380.00     0  06:16      2.94    0.08    0.45
  WS02003067WS02003066 CONDUIT    806.32     0  03:05      1.51    0.26    0.48
  WS02001213WS02003059 CONDUIT    389.17     0  04:50      0.68    0.64    0.82
  WS02001212WS02001213 CONDUIT    388.55     0  02:40      1.31    0.60    0.51
  WS02001211WS02001212 CONDUIT    388.28     0  02:40      0.77    0.30    0.68
  WS02003072WS02003073 CONDUIT   1139.53     0  03:09      1.85    2.46    0.54
  WS02003069WS02003072 CONDUIT   1139.47     0  03:08      1.73    0.55    0.57
  WS02003060WS02003069 CONDUIT   1139.38     0  03:07      1.95    0.45    0.51
  WS02003059WS02003060 CONDUIT    391.16     0  03:12      0.93    0.26    0.72
  HS02004901HS02004770 CONDUIT     32.25     0  03:01      0.09    0.12    0.50
  HS02004876HS02004881 CONDUIT    119.32     0  03:01      1.17    1.27    0.15
  HS02004870HS02004876 CONDUIT     96.13     0  03:01      0.79    0.06    0.17
  HS02004842HS02004848 CONDUIT     15.11     0  03:01      0.07    0.01    0.33
  HS02004837HS02004842 CONDUIT     16.10     0  03:03      0.41    0.01    0.34
  HS02004830HS02004837 CONDUIT     61.24     0  03:01      0.66    0.06    0.13
  HS02004824HS02004830 CONDUIT     60.79     0  03:01      0.63    0.08    0.15
  HS02004817HS02004824 CONDUIT    117.39     0  03:02      0.30    0.05    0.56
  HS02004770HS02004777 CONDUIT    159.99     0  03:01      0.45    0.29    0.51
  HS02004799HS02004480 CONDUIT    387.38     0  03:01      1.00    0.49    0.56
  HS02004792HS02004799 CONDUIT    353.06     0  03:01      1.12    0.22    0.45
  HS02004788HS02004792 CONDUIT    202.14     0  03:02      1.22    0.13    0.24
  HS02004785HS02004788 CONDUIT    156.68     0  03:02      0.85    1.18    0.26
  HS02004777HS02004785 CONDUIT    157.13     0  03:01      0.53    0.19    0.42
  HS02004480HS02004478 CONDUIT    456.75     0  03:01      1.47    1.92    0.44
  HS02004479HS02004480 CONDUIT     74.07     0  03:02      0.22    0.07    0.53
  HS02004862HS02004870 CONDUIT     73.11     0  03:01      0.77    0.08    0.14
  HS02004848HS02004852 CONDUIT     35.11     0  03:01      0.52    0.04    0.10
  HS02004856HS02004862 CONDUIT     51.23     0  03:01      0.58    0.05    0.13
  HS02004852HS02004856 CONDUIT     35.02     0  03:02      0.32    0.04    0.16
  HS02004802HS02004478 CONDUIT    160.68     0  03:04      0.54    0.14    0.45
  HS02004478WS02006287 CONDUIT    609.83     0  03:02      2.03    0.17    0.33
  HS02004817HS02004807 CONDUIT    120.81     0  03:04      0.24    0.07    0.73
  HS02004807HS02004802 CONDUIT    156.91     0  03:03      0.45    0.30    0.51
  YS02001759YS02001757 CONDUIT    762.58     0  02:55      0.97    0.54    1.00
  YS02001762YS02001759 CONDUIT    378.17     0  02:54      0.48    0.44    1.00
  YS02001765YS02001762 CONDUIT    378.27     0  02:54      0.48    0.35    1.00
  YS02001770YS02001767 CONDUIT    377.64     0  02:54      0.48    1.50    1.00
  YS02001774YS02001770 CONDUIT    443.11     0  03:35      0.56    0.28    1.00
  YS02001779YS02001774 CONDUIT    443.32     0  03:35      0.56    0.22    1.00
  YS02001649YS02001757 CONDUIT    985.41     0  02:50      1.25    0.60    1.00
  YS02001767YS02001765 CONDUIT    378.09     0  02:54      0.48    0.48    1.00
  YS02006561YS02001783 CONDUIT   1053.21     0  02:52      2.26    0.55    1.00
  YS02001783YS02001784 CONDUIT   1053.18     0  02:52      2.10    1.45    1.00
  YS02001784YS02001785 CONDUIT   1054.10     0  02:52      2.10    2.45    1.00
  YS02001788YS02001790 CONDUIT   1023.41     0  02:52      2.53    0.75    1.00
  YS02001790YS02001791 CONDUIT   1070.99     0  02:51      3.18    1.17    1.00
  YS02001791YS02001793 CONDUIT    970.62     0  03:01      6.15    0.42    1.00
  YS02001910YS02001907 CONDUIT    666.27     0  02:56      0.85    0.38    1.00
  YS02001786YS02001788 CONDUIT   1037.83     0  02:53      2.35    2.00    1.00
  YS02001915YS02001910 CONDUIT    666.35     0  02:56      0.85    0.33    1.00
  YS02001918YS02001915 CONDUIT    381.53     0  02:56      0.49    0.21    1.00
  YS02001923YS02001920 CONDUIT    378.48     0  02:56      0.72    0.17    1.00
  YS02001926YS02001923 CONDUIT    314.54     0  02:56      0.82    0.45    1.00
  YS02001929YS02001926 CONDUIT    255.16     0  02:55      0.87    0.12    0.99
  YS02001920YS02001918 CONDUIT    381.46     0  02:56      0.70    0.37    1.00
  YS02001629YS02163301 CONDUIT    220.99     0  02:49      0.28    0.27    1.00
  YS02001619YS02001622 CONDUIT    338.07     0  03:01      0.60    0.50    1.00
  YS02001622YS02001625 CONDUIT    338.19     0  03:01      0.43    0.18    1.00
  YS02001625YS02001629 CONDUIT    221.16     0  02:49      0.28    0.11    1.00
  YS02163301YS02001633 CONDUIT    220.73     0  02:49      0.28    0.21    1.00
  YS02163601YS02164001 CONDUIT    465.72     0  02:49      0.59    0.41    1.00
  YS02164001YS02001641 CONDUIT    465.39     0  02:49      0.59    0.64    1.00
  YS02001641YS02001644 CONDUIT    464.86     0  02:49      0.59    1.50    1.00
  YS02001647YS02001649 CONDUIT    707.07     0  02:49      0.90    0.37    1.00
  YS02006553YS02006556 CONDUIT    676.55     0  02:52      0.86    0.58    1.00
  YS02006556YS02006558 CONDUIT    676.91     0  02:52      0.86    0.53    1.00
  YSB6556YSB1171       CONDUIT     41.33     0  03:02      0.13    0.04    0.80
  YS02001907YS02006553 CONDUIT    676.73     0  02:52      0.75    0.80    1.00
  YS02006558YS02006561 CONDUIT   1068.35     0  02:53      3.78    2.36    1.00
  YS02001633YS02163601 CONDUIT    465.78     0  02:49      0.59    0.49    1.00
  YS02001644YS02001647 CONDUIT    707.00     0  02:49      0.90    0.42    1.00
  YS02001745YS02001748 CONDUIT    639.37     0  02:45      1.48    0.25    0.95
  YS02001748YS02001751 CONDUIT    398.76     0  03:01      1.03    0.20    1.00
  YS02001751YS02001754 CONDUIT    398.82     0  03:01      0.84    0.19    1.00
  YS02001754YS02001757 CONDUIT    399.01     0  03:01      0.51    0.16    1.00
  YS02001882YS02001884 CONDUIT     29.39     0  02:49      0.08    0.03    1.00
  YS02001884YS02001887 CONDUIT     28.68     0  02:47      0.05    0.04    1.00
  YS02001890YS02001895 CONDUIT    516.90     0  03:02      0.66    0.24    1.00
  YS02001895YS02001898 CONDUIT    516.99     0  03:02      0.66    0.90    1.00
  YS02001898YS02001901 CONDUIT    516.97     0  03:02      0.66    0.33    1.00
  YS02001901YS02001904 CONDUIT    516.94     0  03:04      0.66    0.80    1.00
  YS02001904YS02001907 CONDUIT    517.05     0  03:04      0.66    0.18    1.00
  YS02001887YS02001890 CONDUIT    623.15     0  03:01      0.79    1.07    1.00
  YS02001652YS02001649 CONDUIT    484.38     0  03:01      0.62    0.24    1.00
  YS02001655YS02001652 CONDUIT    484.35     0  03:01      0.89    0.24    1.00
  YS02001658YS02001655 CONDUIT    483.96     0  03:01      1.18    0.21    1.00
  YS02001661YS02001658 CONDUIT    600.59     0  02:42      1.56    0.24    1.00
  YS02001664YS02001661 CONDUIT    737.55     0  02:59      1.58    0.23    0.73
  YSB1154YSB6556       CONDUIT     41.77     0  03:01      0.19    0.08    0.69
  YSB1174YSB1171       CONDUIT     34.49     0  03:01      0.10    0.05    0.81
  YSB1171HS02004479    CONDUIT     72.19     0  03:02      0.54    0.05    0.65
  HS02004881HS02006253 CONDUIT    131.62     0  03:01      2.01    0.03    0.38
  YS02001793JiankangQianchi CONDUIT    978.21     0  05:11     16.39    0.08    1.00
  YS02001757CaochengTiaoxuchi CONDUIT   1919.06     0  02:51      2.68    0.84    1.00
  WSF200WS02003060     CONDUIT    806.93     0  03:05      1.88    0.18    0.40
  1                    CONDUIT   1141.57     0  03:09      3.45    0.40    0.44
  2                    CONDUIT    326.44     0  03:00      6.53    0.78    0.67
  3                    CONDUIT    585.68     0  03:00     10.02    0.93    0.77
  4                    CONDUIT      0.00     0  00:00      0.00    0.00    0.00
  CC-Pump-1            PUMP       200.00     0  02:06              1.00
  CC-Pump-2            PUMP       200.00     0  02:06              1.00
  JK-Pump-1            PUMP       300.00     0  00:00              1.00
  JK-Pump-2            PUMP       300.00     0  02:15              1.00
  XR-Pump-1            PUMP        95.00     0  00:20              1.00
  XR-Pump-2            PUMP        95.00     0  00:40              1.00
  XR-Pump-3            PUMP        95.00     0  00:00              1.00
  XR-Pump-4            PUMP        95.00     0  00:00              1.00
  
  
  ***************************
  Flow Classification Summary
  ***************************
  
  -------------------------------------------------------------------------------------
                      Adjusted    ---------- Fraction of Time in Flow Class ---------- 
                       /Actual         Up    Down  Sub   Sup   Up    Down  Norm  Inlet 
  Conduit               Length    Dry  Dry   Dry   Crit  Crit  Crit  Crit  Ltd   Ctrl  
  -------------------------------------------------------------------------------------
  WS02003066WSF200        1.00   0.03  0.02  0.00  0.00  0.95  0.00  0.00  0.61  0.00
  WS02006287WS02006284    1.00   0.03  0.01  0.00  0.58  0.37  0.00  0.00  0.67  0.00
  WS02006284WS02006280    1.00   0.04  0.00  0.00  0.00  0.00  0.00  0.96  0.00  0.00
  WS02006280WS02006229    1.00   0.04  0.00  0.00  0.00  0.00  0.00  0.96  0.00  0.00
  WS02006229WS02006228    1.00   0.00  0.00  0.00  0.99  0.00  0.00  0.01  0.00  0.00
  WS02006256WS02006235    1.00   0.00  0.00  0.00  1.00  0.00  0.00  0.00  0.00  0.00
  WS02006253WS02006251    1.00   0.03  0.01  0.00  0.96  0.00  0.00  0.00  0.00  0.00
  WS02006252WS02006251    1.00   0.07  0.00  0.00  0.00  0.00  0.93  0.00  0.00  0.00
  WS02006251WS02006249    1.00   0.00  0.00  0.00  1.00  0.00  0.00  0.00  0.24  0.00
  WS02006249WS02006248    1.00   0.00  0.02  0.00  0.93  0.00  0.06  0.00  0.00  0.00
  WS02006248WS02006247    1.00   0.02  0.00  0.00  0.98  0.00  0.00  0.00  0.12  0.00
  WS02006247WS02006245    1.00   0.02  0.00  0.00  0.98  0.00  0.00  0.00  0.00  0.00
  WS02006245WS02006243    1.00   0.01  0.00  0.00  0.95  0.00  0.00  0.03  0.01  0.00
  WS02006243WS02006242    1.00   0.01  0.00  0.00  0.99  0.00  0.00  0.00  0.21  0.00
  WS02006242WS02006240    1.00   0.00  0.00  0.00  1.00  0.00  0.00  0.00  0.00  0.00
  WS02006240WS02006239    1.00   0.00  0.00  0.00  0.97  0.00  0.00  0.03  0.01  0.00
  WS02006239WS02006238    1.00   0.00  0.00  0.00  1.00  0.00  0.00  0.00  0.00  0.00
  WS02006238WS02006235    1.00   0.00  0.00  0.00  1.00  0.00  0.00  0.00  0.00  0.00
  WS02006235WS02006234    1.00   0.00  0.00  0.00  0.97  0.00  0.03  0.00  0.00  0.00
  WS02006234WS02006232    1.00   0.00  0.00  0.00  1.00  0.00  0.00  0.00  0.04  0.00
  WS02006232WS02006231    1.00   0.00  0.00  0.00  0.99  0.00  0.00  0.00  0.00  0.00
  WS02006231WS02006230    1.00   0.00  0.00  0.00  0.91  0.00  0.09  0.00  0.00  0.00
  WS02006230WS02006229    1.00   0.00  0.00  0.00  0.99  0.00  0.00  0.01  0.01  0.00
  WS02006228WS02006109    1.00   0.00  0.00  0.00  1.00  0.00  0.00  0.00  0.00  0.00
  WS02006116WS02004401    1.00   0.02  0.00  0.00  0.98  0.00  0.00  0.00  0.00  0.00
  WS02006115WS02006116    1.00   0.02  0.00  0.00  0.97  0.00  0.00  0.00  0.00  0.00
  WS02006113WS02006111    1.00   0.02  0.00  0.00  0.03  0.95  0.00  0.00  0.07  0.00
  WS02006112WS02006115    1.00   0.02  0.00  0.00  0.98  0.00  0.00  0.00  0.00  0.00
  WS02006111WS02006112    1.00   0.02  0.00  0.00  0.98  0.00  0.00  0.00  0.91  0.00
  WS02006110WS02006113    1.00   0.01  0.01  0.00  0.98  0.00  0.00  0.00  0.00  0.00
  WS02006109WS02006110    1.00   0.00  0.01  0.00  0.98  0.00  0.01  0.00  0.00  0.00
  WS02004411WS02004412    1.00   0.03  0.00  0.00  0.97  0.00  0.00  0.00  0.00  0.00
  WS02004401WS02004402    1.00   0.02  0.00  0.00  0.98  0.00  0.00  0.00  0.00  0.00
  WS02004413WS02003067    1.00   0.03  0.01  0.00  0.00  0.00  0.95  0.00  0.00  0.00
  WS02004412WS02004413    1.00   0.03  0.00  0.00  0.97  0.00  0.00  0.00  0.03  0.00
  WS02004410WS02004411    1.00   0.03  0.00  0.00  0.97  0.00  0.00  0.00  0.03  0.00
  WS02004409WS02004410    1.00   0.03  0.00  0.00  0.97  0.00  0.00  0.00  0.03  0.00
  WS02004407WS02004409    1.00   0.03  0.00  0.00  0.97  0.00  0.00  0.00  0.89  0.00
  WS02004406WS02004407    1.00   0.00  0.03  0.00  0.97  0.00  0.00  0.00  0.00  0.00
  WS02004405WS02004406    1.00   0.00  0.00  0.00  1.00  0.00  0.00  0.00  0.01  0.00
  WS02004404WS02004405    1.00   0.00  0.00  0.00  1.00  0.00  0.00  0.00  0.00  0.00
  WS02004403WS02004404    1.00   0.00  0.02  0.00  0.98  0.00  0.00  0.00  0.01  0.00
  WS02004402WS02004403    1.00   0.02  0.00  0.00  0.98  0.00  0.00  0.00  0.00  0.00
  WS02004139WS02001211    1.00   0.00  0.00  0.00  1.00  0.00  0.00  0.00  0.00  0.00
  WS02004138WS02004139    1.00   0.00  0.00  0.00  0.99  0.01  0.00  0.00  1.00  0.00
  WS02003067WS02003066    1.00   0.05  0.00  0.00  0.95  0.00  0.00  0.00  0.00  0.00
  WS02001213WS02003059    1.00   0.00  0.00  0.00  0.99  0.00  0.00  0.00  0.00  0.00
  WS02001212WS02001213    1.00   0.00  0.00  0.00  0.91  0.00  0.08  0.00  0.00  0.00
  WS02001211WS02001212    1.00   0.00  0.00  0.00  1.00  0.00  0.00  0.00  0.00  0.00
  WS02003072WS02003073    1.00   0.00  0.00  0.00  0.00  0.00  0.00  1.00  0.00  0.00
  WS02003069WS02003072    1.00   0.00  0.00  0.00  1.00  0.00  0.00  0.00  0.21  0.00
  WS02003060WS02003069    1.00   0.00  0.00  0.00  0.99  0.01  0.00  0.00  0.09  0.00
  WS02003059WS02003060    1.00   0.00  0.00  0.00  1.00  0.00  0.00  0.00  0.01  0.00
  HS02004901HS02004770    1.00   0.04  0.00  0.00  0.96  0.00  0.00  0.00  0.01  0.00
  HS02004876HS02004881    1.00   0.02  0.00  0.00  0.87  0.11  0.00  0.00  0.00  0.00
  HS02004870HS02004876    1.00   0.00  0.00  0.00  0.99  0.00  0.00  0.00  0.95  0.00
  HS02004842HS02004848    1.00   0.00  0.04  0.00  0.96  0.00  0.00  0.00  0.58  0.00
  HS02004837HS02004842    1.00   0.00  0.00  0.00  0.99  0.01  0.00  0.00  0.11  0.00
  HS02004830HS02004837    1.00   0.00  0.00  0.00  1.00  0.00  0.00  0.00  0.99  0.00
  HS02004824HS02004830    1.00   0.00  0.00  0.00  1.00  0.00  0.00  0.00  0.01  0.00
  HS02004817HS02004824    1.00   0.00  0.00  0.00  1.00  0.00  0.00  0.00  0.98  0.00
  HS02004770HS02004777    1.00   0.00  0.04  0.00  0.96  0.00  0.00  0.00  0.04  0.00
  HS02004799HS02004480    1.00   0.00  0.02  0.00  0.96  0.00  0.02  0.00  0.00  0.00
  HS02004792HS02004799    1.00   0.00  0.00  0.00  0.99  0.01  0.00  0.00  0.98  0.00
  HS02004788HS02004792    1.00   0.00  0.00  0.00  0.99  0.01  0.00  0.00  0.98  0.00
  HS02004785HS02004788    1.00   0.00  0.00  0.00  1.00  0.00  0.00  0.00  0.00  0.00
  HS02004777HS02004785    1.00   0.00  0.00  0.00  1.00  0.00  0.00  0.00  0.15  0.00
  HS02004480HS02004478    1.00   0.04  0.00  0.00  0.67  0.00  0.00  0.29  0.00  0.00
  HS02004479HS02004480    1.00   0.02  0.00  0.00  0.98  0.00  0.00  0.00  0.13  0.00
  HS02004862HS02004870    1.00   0.00  0.00  0.00  1.00  0.00  0.00  0.00  0.06  0.00
  HS02004848HS02004852    1.00   0.04  0.00  0.00  0.96  0.00  0.00  0.00  0.64  0.00
  HS02004856HS02004862    1.00   0.00  0.05  0.00  0.95  0.00  0.00  0.00  0.79  0.00
  HS02004852HS02004856    1.00   0.04  0.00  0.00  0.96  0.00  0.00  0.00  0.81  0.00
  HS02004802HS02004478    1.00   0.04  0.00  0.00  0.96  0.00  0.00  0.00  0.03  0.00
  HS02004478WS02006287    1.00   0.04  0.00  0.00  0.72  0.23  0.00  0.00  0.66  0.00
  HS02004817HS02004807    1.00   0.00  0.04  0.00  0.96  0.00  0.00  0.00  0.01  0.00
  HS02004807HS02004802    1.00   0.04  0.00  0.00  0.96  0.00  0.00  0.00  0.00  0.00
  YS02001759YS02001757    1.00   0.00  0.00  0.00  1.00  0.00  0.00  0.00  0.17  0.00
  YS02001762YS02001759    1.00   0.00  0.00  0.00  1.00  0.00  0.00  0.00  0.04  0.00
  YS02001765YS02001762    1.00   0.00  0.00  0.00  1.00  0.00  0.00  0.00  0.17  0.00
  YS02001770YS02001767    1.00   0.00  0.00  0.00  1.00  0.00  0.00  0.00  0.00  0.00
  YS02001774YS02001770    1.00   0.00  0.04  0.00  0.96  0.00  0.00  0.00  0.04  0.00
  YS02001779YS02001774    1.00   0.00  0.00  0.00  1.00  0.00  0.00  0.00  0.22  0.00
  YS02001649YS02001757    1.00   0.00  0.00  0.00  1.00  0.00  0.00  0.00  0.17  0.00
  YS02001767YS02001765    1.00   0.00  0.00  0.00  1.00  0.00  0.00  0.00  0.01  0.00
  YS02006561YS02001783    1.00   0.05  0.00  0.00  0.36  0.59  0.00  0.00  0.50  0.00
  YS02001783YS02001784    1.00   0.00  0.05  0.00  0.95  0.00  0.00  0.00  0.01  0.00
  YS02001784YS02001785    1.00   0.00  0.00  0.00  1.00  0.00  0.00  0.00  0.21  0.00
  YS02001788YS02001790    1.00   0.00  0.00  0.00  0.40  0.60  0.00  0.00  0.46  0.00
  YS02001790YS02001791    1.00   0.00  0.00  0.00  0.37  0.63  0.00  0.00  0.44  0.00
  YS02001791YS02001793    1.00   0.00  0.00  0.00  0.37  0.63  0.00  0.00  0.02  0.00
  YS02001910YS02001907    1.00   0.00  0.00  0.00  0.98  0.00  0.00  0.02  0.13  0.00
  YS02001786YS02001788    1.00   0.00  0.00  0.00  0.39  0.61  0.00  0.00  0.00  0.00
  YS02001915YS02001910    1.00   0.00  0.00  0.00  0.99  0.01  0.00  0.00  0.19  0.00
  YS02001918YS02001915    1.00   0.00  0.01  0.00  0.98  0.01  0.00  0.00  0.56  0.00
  YS02001923YS02001920    1.00   0.00  0.00  0.00  1.00  0.00  0.00  0.00  0.83  0.00
  YS02001926YS02001923    1.00   0.00  0.03  0.00  0.17  0.00  0.80  0.00  0.00  0.00
  YS02001929YS02001926    1.00   0.00  0.04  0.00  0.96  0.00  0.00  0.00  0.76  0.00
  YS02001920YS02001918    1.00   0.00  0.01  0.00  0.99  0.00  0.00  0.00  0.00  0.00
  YS02001629YS02163301    1.00   0.04  0.00  0.00  0.95  0.00  0.00  0.00  0.00  0.00
  YS02001619YS02001622    1.00   0.04  0.00  0.00  0.96  0.00  0.00  0.00  0.00  0.00
  YS02001622YS02001625    1.00   0.04  0.00  0.00  0.96  0.00  0.00  0.00  0.08  0.00
  YS02001625YS02001629    1.00   0.04  0.01  0.00  0.93  0.00  0.02  0.00  0.00  0.00
  YS02163301YS02001633    1.00   0.00  0.04  0.00  0.96  0.00  0.00  0.00  0.00  0.00
  YS02163601YS02164001    1.00   0.00  0.03  0.00  0.97  0.00  0.00  0.00  0.00  0.00
  YS02164001YS02001641    1.00   0.01  0.02  0.00  0.97  0.00  0.00  0.00  0.06  0.00
  YS02001641YS02001644    1.00   0.00  0.01  0.00  0.99  0.00  0.00  0.00  0.00  0.00
  YS02001647YS02001649    1.00   0.00  0.05  0.00  0.95  0.00  0.00  0.00  0.01  0.00
  YS02006553YS02006556    1.00   0.01  0.00  0.00  0.99  0.00  0.00  0.00  0.03  0.00
  YS02006556YS02006558    1.00   0.00  0.00  0.00  1.00  0.00  0.00  0.00  0.00  0.00
  YSB6556YSB1171          1.00   0.02  0.01  0.00  0.96  0.00  0.00  0.00  0.00  0.00
  YS02001907YS02006553    1.00   0.00  0.02  0.00  0.98  0.00  0.00  0.00  0.00  0.00
  YS02006558YS02006561    1.00   0.05  0.00  0.00  0.19  0.76  0.00  0.00  0.44  0.00
  YS02001633YS02163601    1.00   0.00  0.01  0.00  0.99  0.00  0.00  0.00  0.16  0.00
  YS02001644YS02001647    1.00   0.00  0.05  0.00  0.95  0.00  0.00  0.00  0.00  0.00
  YS02001745YS02001748    1.00   0.00  0.00  0.00  0.88  0.01  0.00  0.10  0.04  0.00
  YS02001748YS02001751    1.00   0.00  0.00  0.00  0.97  0.03  0.00  0.00  0.15  0.00
  YS02001751YS02001754    1.00   0.00  0.00  0.00  0.94  0.00  0.00  0.05  0.02  0.00
  YS02001754YS02001757    1.00   0.00  0.00  0.00  0.99  0.01  0.00  0.00  0.21  0.00
  YS02001882YS02001884    1.00   0.04  0.00  0.00  0.96  0.00  0.00  0.00  0.00  0.00
  YS02001884YS02001887    1.00   0.03  0.01  0.00  0.97  0.00  0.00  0.00  0.00  0.00
  YS02001890YS02001895    1.00   0.00  0.04  0.00  0.96  0.00  0.00  0.00  0.00  0.00
  YS02001895YS02001898    1.00   0.04  0.00  0.00  0.95  0.00  0.01  0.00  0.00  0.00
  YS02001898YS02001901    1.00   0.05  0.00  0.00  0.95  0.00  0.00  0.00  0.03  0.00
  YS02001901YS02001904    1.00   0.05  0.00  0.00  0.95  0.00  0.00  0.00  0.00  0.00
  YS02001904YS02001907    1.00   0.00  0.04  0.00  0.95  0.00  0.00  0.00  0.00  0.00
  YS02001887YS02001890    1.00   0.00  0.00  0.00  0.98  0.00  0.02  0.00  0.00  0.00
  YS02001652YS02001649    1.00   0.00  0.00  0.00  1.00  0.00  0.00  0.00  0.19  0.00
  YS02001655YS02001652    1.00   0.00  0.00  0.00  0.95  0.00  0.00  0.05  0.03  0.00
  YS02001658YS02001655    1.00   0.00  0.04  0.00  0.93  0.03  0.00  0.00  0.13  0.00
  YS02001661YS02001658    1.00   0.04  0.00  0.00  0.88  0.08  0.00  0.00  0.08  0.00
  YS02001664YS02001661    1.00   0.04  0.00  0.00  0.87  0.09  0.00  0.00  0.22  0.00
  YSB1154YSB6556          1.00   0.04  0.00  0.00  0.96  0.00  0.00  0.00  0.02  0.00
  YSB1174YSB1171          1.00   0.03  0.01  0.00  0.97  0.00  0.00  0.00  0.00  0.00
  YSB1171HS02004479       1.00   0.02  0.00  0.00  0.97  0.00  0.00  0.00  0.11  0.00
  HS02004881HS02006253    1.00   0.03  0.00  0.00  0.84  0.03  0.00  0.11  0.69  0.00
  YS02001793JiankangQianchi    1.00   0.00  0.00  0.00  0.53  0.47  0.00  0.00  0.14  0.00
  YS02001757CaochengTiaoxuchi    1.00   0.00  0.07  0.00  0.92  0.02  0.00  0.00  0.00  0.00
  WSF200WS02003060        1.00   0.00  0.03  0.00  0.83  0.14  0.00  0.00  0.25  0.00
  1                       1.00   0.00  0.00  0.00  0.00  1.00  0.00  0.00  0.28  0.00
  2                       1.00   0.40  0.00  0.00  0.00  0.60  0.00  0.00  0.14  0.00
  3                       1.00   0.04  0.00  0.00  0.00  0.96  0.00  0.00  0.22  0.00
  4                       1.00   1.00  0.00  0.00  0.00  0.00  0.00  0.00  0.00  0.00
  
  
  *************************
  Conduit Surcharge Summary
  *************************
  
  ----------------------------------------------------------------------------
                                                           Hours        Hours 
                         --------- Hours Full --------   Above Full   Capacity
  Conduit                Both Ends  Upstream  Dnstream   Normal Flow   Limited
  ----------------------------------------------------------------------------
  WS02006229WS02006228        3.22      3.73      3.22      5.69         3.22
  WS02006256WS02006235        6.04      6.05      7.68      2.53         0.01
  WS02006253WS02006251        0.11      0.11      0.16      0.01         0.01
  WS02006252WS02006251        1.90      1.90      3.40      3.02         0.01
  WS02006251WS02006249        0.01      0.12      0.01      2.06         0.01
  WS02006249WS02006248        0.01      0.01      0.01      5.16         0.01
  WS02006248WS02006247        0.02      0.02      0.20      0.01         0.01
  WS02006247WS02006245        0.21      0.23      0.21      5.42         0.21
  WS02006245WS02006243        0.24      0.24      0.34      0.04         0.01
  WS02006243WS02006242        0.49      0.49      2.48      0.01         0.01
  WS02006242WS02006240        0.89      0.89      3.18      3.20         0.01
  WS02006240WS02006239        1.32      1.32      1.54      0.03         0.01
  WS02006239WS02006238        3.02      3.02      3.29      0.06         0.05
  WS02006238WS02006235        3.03      3.03      3.80      0.01         0.01
  WS02006235WS02006234        1.00      1.00      2.65      6.07         0.01
  WS02006234WS02006232        1.50      1.50      4.03      0.01         0.01
  WS02006232WS02006231        0.74      0.74      4.03      0.01         0.01
  WS02006231WS02006230        0.54      0.54      0.88      6.06         0.01
  WS02006230WS02006229        5.17      5.49      5.17      6.16         5.17
  WS02006228WS02006109        3.49      4.63      3.49      5.88         3.49
  WS02006116WS02004401        0.29      0.29      0.30      0.22         0.23
  WS02006115WS02006116        0.15      0.15      0.15      0.09         0.10
  WS02006112WS02006115        0.13      0.13      1.25      0.01         0.01
  WS02006111WS02006112        0.01      0.01      5.68      0.01         0.01
  WS02006110WS02006113        0.01      0.01      4.10      0.01         0.01
  WS02006109WS02006110        1.19      1.19      4.64      1.19         0.01
  WS02004411WS02004412        0.01      0.01      0.01      0.27         0.01
  WS02004401WS02004402        0.30      0.30      0.36      0.01         0.01
  WS02004410WS02004411        0.01      0.01      0.01      0.20         0.01
  WS02004409WS02004410        0.01      0.01      0.01      0.10         0.01
  WS02004406WS02004407        0.01      0.01      0.51      0.01         0.01
  WS02004405WS02004406        0.51      0.54      0.51      1.22         0.51
  WS02004404WS02004405        0.54      0.57      0.54      5.90         0.54
  WS02004403WS02004404        0.37      0.37      0.57      0.01         0.01
  WS02004402WS02004403        0.36      0.36      0.37      0.28         0.29
  WS02003072WS02003073        0.01      0.01      0.01      5.72         0.01
  HS02004876HS02004881        0.01      0.01      0.01      0.17         0.01
  HS02004785HS02004788        0.01      0.01      0.01      0.10         0.01
  HS02004480HS02004478        0.01      0.01      0.01      0.52         0.01
  YS02001759YS02001757        5.54      5.54      5.62      0.01         0.01
  YS02001762YS02001759        5.51      5.51      5.54      0.01         0.01
  YS02001765YS02001762        5.49      5.49      5.51      0.01         0.01
  YS02001770YS02001767        5.46      5.46      5.46      0.31         0.81
  YS02001774YS02001770        5.43      5.43      5.50      0.01         0.01
  YS02001779YS02001774        5.29      5.29      5.50      0.01         0.01
  YS02001649YS02001757        5.52      5.52      5.62      0.01         0.01
  YS02001767YS02001765        5.46      5.46      5.49      0.01         0.01
  YS02006561YS02001783        0.84      0.84      1.36      0.01         0.01
  YS02001783YS02001784        1.34      1.36      1.38      1.36         1.16
  YS02001784YS02001785        1.27      1.38      1.27      2.19         1.27
  YS02001788YS02001790        1.27      1.27      1.95      0.01         0.01
  YS02001790YS02001791        1.95      1.95      2.11      0.76         0.70
  YS02001791YS02001793        2.11      2.11      2.20      0.01         0.01
  YS02001910YS02001907        1.20      1.20      1.66      0.01         0.01
  YS02001786YS02001788        1.27      1.27      1.27      1.87         1.27
  YS02001915YS02001910        0.98      0.98      1.20      0.01         0.01
  YS02001918YS02001915        0.74      0.74      0.98      0.01         0.01
  YS02001923YS02001920        0.55      0.55      0.77      0.01         0.01
  YS02001926YS02001923        0.01      0.01      0.01      0.01         0.01
  YS02001929YS02001926        0.01      0.01      0.01      0.01         0.01
  YS02001920YS02001918        0.74      0.74      0.77      0.01         0.01
  YS02001629YS02163301        5.44      5.44      5.45      0.01         0.01
  YS02001619YS02001622        5.15      5.15      5.16      0.01         0.01
  YS02001622YS02001625        5.16      5.16      5.31      0.01         0.01
  YS02001625YS02001629        5.16      5.16      5.31      0.01         0.01
  YS02163301YS02001633        5.45      5.45      5.49      0.01         0.01
  YS02163601YS02164001        5.49      5.49      5.52      0.01         0.01
  YS02164001YS02001641        5.49      5.49      5.50      0.01         0.02
  YS02001641YS02001644        5.50      5.50      5.50      1.48         1.56
  YS02001647YS02001649        5.31      5.31      5.52      0.01         0.01
  YS02006553YS02006556        1.41      1.41      1.70      0.01         0.01
  YS02006556YS02006558        1.54      1.54      1.78      0.01         0.01
  YS02001907YS02006553        2.24      2.24      2.45      0.01         0.01
  YS02006558YS02006561        1.01      1.37      1.01      2.09         1.01
  YS02001633YS02163601        5.48      5.48      5.52      0.01         0.01
  YS02001644YS02001647        5.31      5.31      5.50      0.01         0.01
  YS02001745YS02001748        0.01      0.01      5.03      0.01         0.01
  YS02001748YS02001751        5.06      5.06      5.13      0.01         0.01
  YS02001751YS02001754        5.13      5.13      5.29      0.01         0.01
  YS02001754YS02001757        5.30      5.30      5.62      0.01         0.01
  YS02001882YS02001884        0.99      0.99      1.03      0.01         0.01
  YS02001884YS02001887        1.09      1.09      1.12      0.01         0.01
  YS02001890YS02001895        0.96      0.96      1.22      0.01         0.01
  YS02001895YS02001898        0.95      0.95      0.96      0.01         0.01
  YS02001898YS02001901        0.97      0.97      1.08      0.01         0.01
  YS02001901YS02001904        1.06      1.06      1.08      0.01         0.01
  YS02001904YS02001907        1.06      1.06      1.72      0.01         0.01
  YS02001887YS02001890        1.15      1.15      1.18      0.07         0.01
  YS02001652YS02001649        5.31      5.31      5.52      0.01         0.01
  YS02001655YS02001652        5.16      5.16      5.30      0.01         0.01
  YS02001658YS02001655        5.06      5.06      5.16      0.01         0.01
  YS02001661YS02001658        0.24      0.24      5.06      0.01         0.01
  YS02001664YS02001661        0.01      0.01      1.16      0.01         0.01
  YS02001793JiankangQianchi        2.17      2.17      2.97      0.01         0.01
  YS02001757CaochengTiaoxuchi        4.84      4.84      5.62      0.01         0.01
  
  
  ***************
  Pumping Summary
  ***************
  
  ---------------------------------------------------------------------------------------------------------
                                                  Min       Avg       Max     Total     Power    % Time Off
                        Percent   Number of      Flow      Flow      Flow    Volume     Usage    Pump Curve
  Pump                 Utilized   Start-Ups       LPS       LPS       LPS  10^6 ltr     Kw-hr    Low   High
  ---------------------------------------------------------------------------------------------------------
  CC-Pump-1               68.03           4      0.00    161.60    200.00     3.082      4.03    0.0    6.2
  CC-Pump-2               63.77           4      0.00    147.95    200.00     2.662      4.57    0.0   12.0
  JK-Pump-1               97.87           2      0.00    194.98    300.00     4.263     51.23    0.0    0.0
  JK-Pump-2               93.61           3      0.00    199.77    300.00     4.336     51.06    0.0    0.0
  XR-Pump-1               95.72           7      0.00     70.06     95.00     1.909     18.51    0.0    0.0
  XR-Pump-2               87.22           5      0.00     83.27     95.00     1.938     17.46    0.0    0.0
  XR-Pump-3               97.87           4      0.00     79.57     95.00     2.223     21.58    0.0    0.0
  XR-Pump-4               93.61           7      0.00     74.85     95.00     1.995     20.08    0.0    0.0
  

  Analysis begun on:  Fri Jan  7 13:11:36 2022
  Analysis ended on:  Fri Jan  7 13:11:40 2022
  Total elapsed time: 00:00:04