
  EPA STORM WATER MANAGEMENT MODEL - VERSION 5.1 (Build 5.3.0.dev0)
  --------------------------------------------------------------

  WARNING 04: minimum elevation drop used for Conduit WS02004404WS02004405
  WARNING 03: negative offset ignored for Link YS02001904YS02001907
  
  *********************************************************
  NOTE: The summary statistics displayed in this report are
  based on results found at every computational time step,  
  not just on results from each reporting time step.
  *********************************************************
  
  ****************
  Analysis Options
  ****************
  Flow Units ............... LPS
  Process Models:
    Rainfall/Runoff ........ YES
    RDII ................... NO
    Snowmelt ............... NO
    Groundwater ............ NO
    Flow Routing ........... YES
    Ponding Allowed ........ NO
    Water Quality .......... NO
  Infiltration Method ...... HORTON
  Flow Routing Method ...... DYNWAVE
  Surcharge Method ......... EXTRAN
  Starting Date ............ 08/28/2015 08:00:00
  Ending Date .............. 08/28/2015 15:50:00
  Antecedent Dry Days ...... 8.0
  Report Time Step ......... 00:01:00
  Wet Time Step ............ 00:01:00
  Dry Time Step ............ 00:01:00
  Routing Time Step ........ 5.00 sec
  Variable Time Step ....... YES
  Maximum Trials ........... 8
  Number of Threads ........ 4
  Head Tolerance ........... 0.001500 m
  
  
  **************************        Volume         Depth
  Runoff Quantity Continuity     hectare-m            mm
  **************************     ---------       -------
  Total Precipitation ......         6.144        13.452
  Evaporation Loss .........         0.000         0.000
  Infiltration Loss ........         1.572         3.442
  Surface Runoff ...........         3.480         7.619
  Final Storage ............         1.093         2.393
  Continuity Error (%) .....        -0.016
  
  
  **************************        Volume        Volume
  Flow Routing Continuity        hectare-m      10^6 ltr
  **************************     ---------     ---------
  Dry Weather Inflow .......         0.616         6.165
  Wet Weather Inflow .......         3.479        34.789
  Groundwater Inflow .......         0.000         0.000
  RDII Inflow ..............         0.000         0.000
  External Inflow ..........         0.102         1.024
  External Outflow .........         2.510        25.100
  Flooding Loss ............         1.298        12.985
  Evaporation Loss .........         0.000         0.000
  Exfiltration Loss ........         0.000         0.000
  Initial Stored Volume ....         0.076         0.761
  Final Stored Volume ......         0.603         6.031
  Continuity Error (%) .....        -3.225
  
  
  *************************
  Highest Continuity Errors
  *************************
  Node HS02004842 (15.27%)
  Node JK-storage (-14.79%)
  Node YS02001884 (11.94%)
  Node YSB1171 (2.79%)
  Node HS02004817 (2.78%)
  
  
  ***************************
  Time-Step Critical Elements
  ***************************
  Link 3 (60.51%)
  Link WS02006252WS02006251 (29.66%)
  Link WS02006238WS02006235 (3.39%)
  Link WS02006280WS02006229 (1.37%)
  
  
  ********************************
  Highest Flow Instability Indexes
  ********************************
  Link YS02163601YS02164001 (41)
  Link YS02163301YS02001633 (40)
  Link YS02001629YS02163301 (40)
  Link YS02001619YS02001622 (39)
  Link YS02164001YS02001641 (38)
  
  
  *************************
  Routing Time Step Summary
  *************************
  Minimum Time Step           :     0.36 sec
  Average Time Step           :     0.76 sec
  Maximum Time Step           :     5.00 sec
  Percent in Steady State     :    -0.00
  Average Iterations per Step :     4.64
  Percent Not Converging      :    21.80
  
  
  ***************************
  Subcatchment Runoff Summary
  ***************************
  
  ------------------------------------------------------------------------------------------------------------------------------
                            Total      Total      Total      Total     Imperv       Perv      Total       Total     Peak  Runoff
                           Precip      Runon       Evap      Infil     Runoff     Runoff     Runoff      Runoff   Runoff   Coeff
  Subcatchment                 mm         mm         mm         mm         mm         mm         mm    10^6 ltr      LPS
  ------------------------------------------------------------------------------------------------------------------------------
  sub0                      13.45       0.00       0.00       0.89      11.25       0.05      11.30        0.01     3.67   0.840
  sub1                      13.45       0.00       0.00       1.45      10.71       0.03      10.74        0.07    24.31   0.799
  sub2                      13.45       0.00       0.00       4.95       7.56       0.02       7.58        0.07    22.93   0.564
  sub3                      13.45       0.00       0.00       4.96       7.52       0.02       7.54        0.17    51.30   0.560
  sub4                      13.45       0.00       0.00       1.46      10.54       0.02      10.56        0.22    61.94   0.785
  sub5                      13.45       0.00       0.00       0.91      11.19       0.03      11.22        0.13    43.21   0.834
  sub7                      13.45       0.00       0.00       1.17      10.98       0.04      11.03        0.04    13.69   0.820
  sub8                      13.45       0.00       0.00       1.17      10.97       0.04      11.01        0.07    25.15   0.819
  sub9                      13.45       0.00       0.00       1.17      10.97       0.04      11.01        0.05    18.81   0.818
  sub10                     13.45       0.00       0.00       1.04      11.08       0.03      11.11        0.12    42.29   0.826
  sub11                     13.45       0.00       0.00       1.04      11.10       0.04      11.14        0.13    46.68   0.828
  sub12                     13.45       0.00       0.00       1.69      10.51       0.06      10.58        0.09    35.94   0.786
  sub14                     13.45       0.00       0.00       1.17      10.97       0.04      11.01        0.10    37.02   0.818
  sub15                     13.45       0.00       0.00       4.00       8.43       0.04       8.47        0.15    51.03   0.630
  sub16                     13.45       0.00       0.00       4.38       8.09       0.06       8.15        0.09    32.58   0.606
  sub17                     13.45       0.00       0.00       4.25       8.21       0.06       8.27        0.07    26.73   0.615
  sub22                     13.45       0.00       0.00       5.74       6.88       0.04       6.92        0.44   159.06   0.514
  sub23                     13.45       0.00       0.00       4.93       7.60       0.05       7.65        0.36   133.95   0.569
  sub60                     13.45       0.00       0.00       1.61       8.73       0.00       8.74        2.65   387.96   0.649
  sub61                     13.45       0.00       0.00       2.28       8.88       0.00       8.88        2.74   483.52   0.660
  sub62                     13.45       0.00       0.00       1.07       9.65       0.00       9.66        2.97   496.42   0.718
  sub63                     13.45       0.00       0.00       3.90       7.77       0.00       7.77        2.35   446.68   0.578
  sub64                     13.45       0.00       0.00       2.01       8.38       0.00       8.38        2.55   368.35   0.623
  sub65                     13.45       0.00       0.00       1.75       8.52       0.00       8.52        2.62   373.60   0.634
  sub66                     13.45       0.00       0.00       3.90       7.19       0.00       7.19        2.21   337.96   0.535
  sub67                     13.45       0.00       0.00       1.07      10.19       0.01      10.19        3.15   622.58   0.758
  sub68                     13.45       0.00       0.00       1.88       9.34       0.01       9.34        2.87   531.38   0.694
  sub69                     13.45       0.00       0.00       2.01       9.68       0.01       9.69        2.26   503.32   0.720
  sub70                     13.45       9.89       0.00       7.67      12.93       0.26      13.20        3.02   423.72   0.565
  sub71                     13.45       0.00       0.00       1.07       9.40       0.00       9.40        2.22   347.35   0.699
  sub72                     13.45       0.00       0.00       0.94       7.49       0.00       7.50        1.53   163.23   0.557
  sub73                     13.45      12.84       0.00       8.67      14.26       0.27      14.53        3.41   375.92   0.552
  sub74                     13.45       0.00       0.00      10.09       2.88       0.00       2.89        1.15   273.25   0.215
  
  
  ******************
  Node Depth Summary
  ******************
  
  ---------------------------------------------------------------------------------
                                 Average  Maximum  Maximum  Time of Max    Reported
                                   Depth    Depth      HGL   Occurrence   Max Depth
  Node                 Type       Meters   Meters   Meters  days hr:min      Meters
  ---------------------------------------------------------------------------------
  WS02001211           JUNCTION     0.71     0.80     5.64     0  02:51        0.80
  WS02001212           JUNCTION     0.43     0.52     5.58     0  02:51        0.52
  WS02001213           JUNCTION     0.67     0.78     5.54     0  02:52        0.78
  WS02003069           JUNCTION     0.49     0.64     5.22     0  03:06        0.64
  WS02003072           JUNCTION     0.56     0.69     5.06     0  03:07        0.69
  WS02003073           JUNCTION     0.34     0.43     4.49     0  03:08        0.43
  WS02003060           JUNCTION     0.44     0.56     5.50     0  03:06        0.56
  WS02003066           JUNCTION     0.26     0.36     5.91     0  03:05        0.36
  WS02003059           JUNCTION     0.73     0.84     5.52     0  02:52        0.84
  WS02003067           JUNCTION     0.62     0.79     6.11     0  03:05        0.79
  WS02004401           JUNCTION     0.75     1.11     7.11     0  03:03        1.10
  WS02004402           JUNCTION     0.78     1.11     7.07     0  03:03        1.11
  WS02004403           JUNCTION     0.79     1.10     7.03     0  03:03        1.10
  WS02004404           JUNCTION     0.87     1.15     7.00     0  03:03        1.15
  WS02004406           JUNCTION     0.87     1.10     6.93     0  03:03        1.10
  WS02004409           JUNCTION     0.56     0.85     6.62     0  03:05        0.85
  WS02004410           JUNCTION     0.58     0.85     6.57     0  03:04        0.85
  WS02004411           JUNCTION     0.59     0.84     6.52     0  03:04        0.84
  WS02004412           JUNCTION     0.60     0.83     6.47     0  03:05        0.83
  WS02004413           JUNCTION     0.76     0.97     6.44     0  03:05        0.97
  WS02004405           JUNCTION     0.86     1.13     6.98     0  03:03        1.13
  WS02006109           JUNCTION     0.84     1.26     7.88     0  03:02        1.25
  WS02006110           JUNCTION     0.82     1.11     7.69     0  03:02        1.10
  WS02006111           JUNCTION     0.26     0.60     7.30     0  03:03        0.59
  WS02006112           JUNCTION     0.93     1.38     7.26     0  03:03        1.38
  WS02006113           JUNCTION     0.39     0.61     7.50     0  03:03        0.61
  WS02006115           JUNCTION     0.65     1.06     7.20     0  03:03        1.05
  WS02006116           JUNCTION     0.73     1.11     7.15     0  03:03        1.11
  WS02006230           JUNCTION     0.85     1.38     8.13     0  03:02        1.37
  WS02006231           JUNCTION     0.58     1.02     8.14     0  03:02        1.01
  WS02006232           JUNCTION     0.72     1.12     8.15     0  03:02        1.10
  WS02006234           JUNCTION     0.65     1.00     8.16     0  03:02        1.00
  WS02006235           JUNCTION     0.69     1.01     8.17     0  03:02        1.00
  WS02006238           JUNCTION     0.71     1.04     8.19     0  03:02        1.02
  WS02006240           JUNCTION     0.62     0.91     8.21     0  03:02        0.91
  WS02006242           JUNCTION     0.68     0.96     8.23     0  03:02        0.95
  WS02006243           JUNCTION     0.57     0.82     8.24     0  03:02        0.82
  WS02006245           JUNCTION     0.54     0.78     8.26     0  03:02        0.78
  WS02006247           JUNCTION     0.55     0.78     8.28     0  03:03        0.78
  WS02006248           JUNCTION     0.50     0.70     8.29     0  03:02        0.70
  WS02006249           JUNCTION     0.52     0.70     8.30     0  03:03        0.70
  WS02006239           JUNCTION     0.68     0.99     8.19     0  03:02        0.97
  WS02006251           JUNCTION     0.52     0.80     8.47     0  03:02        0.80
  WS02006252           JUNCTION     0.46     0.59     8.84     0  04:33        0.59
  WS02006253           JUNCTION     0.55     0.83     8.47     0  03:02        0.83
  WS02006256           JUNCTION     1.11     1.22     8.15     0  03:10        1.22
  WS02004138           JUNCTION     0.17     0.19     7.44     0  05:02        0.19
  WS02004407           JUNCTION     0.25     0.36     6.68     0  03:04        0.36
  WS02006228           JUNCTION     0.86     1.38     8.03     0  03:02        1.36
  WS02006229           JUNCTION     0.84     1.42     8.11     0  03:02        1.41
  WS02006280           JUNCTION     0.08     0.24     8.52     0  03:02        0.24
  WS02006284           JUNCTION     0.38     0.63     9.02     0  03:02        0.62
  WS02006287           JUNCTION     0.11     0.37     9.32     0  03:02        0.37
  WSF200               JUNCTION     0.25     0.40     5.63     0  03:05        0.40
  HS02004901           JUNCTION     0.14     0.35    10.17     0  03:01        0.35
  HS02004881           JUNCTION     0.01     0.05     9.08     0  03:01        0.05
  HS02004876           JUNCTION     0.05     0.15     9.18     0  03:01        0.15
  HS02004870           JUNCTION     0.02     0.09     9.37     0  03:01        0.09
  HS02004862           JUNCTION     0.02     0.10     9.49     0  03:01        0.10
  HS02004856           JUNCTION     0.08     0.15     9.57     0  03:01        0.15
  HS02004852           JUNCTION     0.01     0.07     9.58     0  03:02        0.07
  HS02004848           JUNCTION     0.01     0.06     9.67     0  03:01        0.06
  HS02004842           JUNCTION     0.33     0.40     9.67     0  03:01        0.40
  HS02004837           JUNCTION     0.03     0.09     9.67     0  03:01        0.09
  HS02004830           JUNCTION     0.04     0.10     9.57     0  03:01        0.10
  HS02004824           JUNCTION     0.03     0.11     9.51     0  03:02        0.11
  HS02004817           JUNCTION     0.45     0.67     9.52     0  03:02        0.67
  HS02004807           JUNCTION     0.14     0.34     9.51     0  03:02        0.34
  HS02004802           JUNCTION     0.17     0.38     9.50     0  03:02        0.38
  HS02004799           JUNCTION     0.13     0.43     9.65     0  03:01        0.43
  HS02004792           JUNCTION     0.04     0.20     9.72     0  03:01        0.19
  HS02004788           JUNCTION     0.03     0.14    10.04     0  03:02        0.14
  HS02004785           JUNCTION     0.06     0.23    10.13     0  03:02        0.23
  HS02004777           JUNCTION     0.16     0.37    10.17     0  03:01        0.37
  HS02004770           JUNCTION     0.13     0.34    10.17     0  03:01        0.34
  HS02004480           JUNCTION     0.09     0.35     9.59     0  03:01        0.35
  HS02004479           JUNCTION     0.13     0.39     9.60     0  03:01        0.39
  HS02004478           JUNCTION     0.07     0.26     9.48     0  03:01        0.26
  YS02001745           JUNCTION     0.68     0.87     8.39     0  03:17        0.87
  YS02001748           JUNCTION     1.07     2.27     9.35     0  02:47        1.31
  YS02001751           JUNCTION     1.25     2.20     9.08     0  02:48        1.52
  YS02001754           JUNCTION     1.50     2.16     8.77     0  02:48        1.80
  YS02001762           JUNCTION     1.70     2.08     8.48     0  02:48        2.02
  YS02001765           JUNCTION     1.66     2.03     8.48     0  02:48        1.97
  YS02001767           JUNCTION     1.62     1.96     8.45     0  02:48        1.92
  YS02001770           JUNCTION     1.62     1.95     8.44     0  02:48        1.90
  YS02001774           JUNCTION     1.68     2.01     8.43     0  02:48        1.96
  YS02001779           JUNCTION     1.43     1.68     8.37     0  02:45        1.68
  YS02001882           JUNCTION     0.60     1.65     8.37     0  02:51        1.62
  YS02001884           JUNCTION     0.69     1.74     8.36     0  02:51        1.72
  YS02001759           JUNCTION     1.74     2.12     8.48     0  02:48        2.06
  YS02001887           JUNCTION     0.77     1.81     8.35     0  02:51        1.80
  YS02001890           JUNCTION     0.80     1.81     8.32     0  02:51        1.81
  YS02001898           JUNCTION     0.57     1.57     8.31     0  02:51        1.56
  YS02001901           JUNCTION     0.68     1.68     8.29     0  02:51        1.67
  YS02001904           JUNCTION     0.66     1.64     8.27     0  02:51        1.63
  YS02001907           JUNCTION     0.99     1.96     8.25     0  02:51        1.96
  YS02001910           JUNCTION     0.78     1.79     8.30     0  02:53        1.79
  YS02001915           JUNCTION     0.58     1.62     8.34     0  02:52        1.61
  YS02001918           JUNCTION     0.32     1.33     8.39     0  02:52        1.33
  YS02001619           JUNCTION     1.22     1.61     8.54     0  02:42        1.48
  YS02001629           JUNCTION     1.57     1.85     8.40     0  02:44        1.84
  YS02001641           JUNCTION     1.67     1.95     8.39     0  02:47        1.93
  YS02001644           JUNCTION     1.67     1.92     8.35     0  02:45        1.92
  YS02001652           JUNCTION     1.52     2.16     8.76     0  02:59        2.11
  YS02001655           JUNCTION     1.28     2.20     9.05     0  02:43        2.17
  YS02001920           JUNCTION     0.42     1.42     8.43     0  02:52        1.42
  YS02001923           JUNCTION     0.25     1.19     8.45     0  02:52        1.19
  YS02001926           JUNCTION     0.30     1.10     8.55     0  02:52        0.96
  YS02001929           JUNCTION     0.17     0.76     8.45     0  02:52        0.73
  YS02001658           JUNCTION     1.01     2.30     9.44     0  02:45        2.05
  YS02001661           JUNCTION     0.79     2.46     9.86     0  03:03        1.82
  YS02001664           JUNCTION     0.35     0.57     8.49     0  03:47        0.56
  YS02001622           JUNCTION     1.24     1.62     8.52     0  02:44        1.50
  YS02001633           JUNCTION     1.66     1.97     8.42     0  02:48        1.94
  YS02001649           JUNCTION     1.71     2.05     8.44     0  02:45        2.05
  YS02001757           JUNCTION     1.83     2.21     8.47     0  02:48        2.16
  YS02001895           JUNCTION     0.56     1.57     8.32     0  02:51        1.56
  YS02001625           JUNCTION     1.53     1.78     8.38     0  02:44        1.78
  YS02163301           JUNCTION     1.60     1.91     8.43     0  02:46        1.88
  YS02163601           JUNCTION     1.71     2.00     8.40     0  02:47        1.98
  YS02164001           JUNCTION     1.65     1.94     8.40     0  02:47        1.91
  YS02001647           JUNCTION     1.50     1.81     8.42     0  02:45        1.79
  YSB1154              JUNCTION     0.27     0.54     9.60     0  03:01        0.54
  YSB6556              JUNCTION     0.16     0.43     9.60     0  03:02        0.43
  YSB1174              JUNCTION     0.22     0.49     9.60     0  03:01        0.49
  YSB1171              JUNCTION     0.42     0.69     9.60     0  03:01        0.69
  YS02006553           JUNCTION     0.99     1.97     8.25     0  03:00        1.96
  YS02006561           JUNCTION     0.35     1.11     7.77     0  02:51        1.08
  YS02006556           JUNCTION     0.96     1.93     8.24     0  03:00        1.93
  YS02006558           JUNCTION     1.00     1.98     8.24     0  03:00        1.96
  YS02001783           JUNCTION     0.58     1.59     7.73     0  02:45        1.47
  YS02001784           JUNCTION     0.60     1.81     7.88     0  02:45        1.41
  YS02001786           JUNCTION     0.53     2.04     8.07     0  02:45        1.26
  YS02001788           JUNCTION     0.46     2.28     8.26     0  02:45        1.12
  YS02001790           JUNCTION     0.57     1.96     7.60     0  02:44        1.29
  YS02001791           JUNCTION     0.53     1.70     7.17     0  02:45        1.27
  YS02001793           JUNCTION     0.70     2.06     6.89     0  02:45        1.80
  WS02004139           JUNCTION     0.65     0.74     5.65     0  02:51        0.74
  WSC                  OUTFALL      0.34     0.43     1.10     0  03:08        0.43
  3                    OUTFALL      0.13     0.22     6.22     0  03:10        0.22
  4                    OUTFALL      0.07     0.20     7.20     0  03:03        0.20
  5                    OUTFALL      0.00     0.00     5.00     0  00:00        0.00
  JK-storage           STORAGE      2.41     5.80     6.60     0  02:45        5.80
  CC-storage           STORAGE      1.04     1.37     8.37     0  03:57        1.37
  XR-storage           STORAGE      6.25     7.72     5.72     0  03:08        7.72
  
  
  *******************
  Node Inflow Summary
  *******************
  
  -------------------------------------------------------------------------------------------------
                                  Maximum  Maximum                  Lateral       Total        Flow
                                  Lateral    Total  Time of Max      Inflow      Inflow     Balance
                                   Inflow   Inflow   Occurrence      Volume      Volume       Error
  Node                 Type           LPS      LPS  days hr:min    10^6 ltr    10^6 ltr     Percent
  -------------------------------------------------------------------------------------------------
  WS02001211           JUNCTION      7.35   388.49     0  07:30       0.207         8.3       0.456
  WS02001212           JUNCTION      0.00   389.59     0  07:30           0        8.26       0.251
  WS02001213           JUNCTION      0.00   390.81     0  07:30           0        8.24       0.298
  WS02003069           JUNCTION      0.32  1098.69     0  03:06     0.00902        17.9       0.191
  WS02003072           JUNCTION      0.00  1098.50     0  03:07           0        17.9       0.227
  WS02003073           JUNCTION      1.82  1100.39     0  03:07      0.0514        17.9       0.262
  WS02003060           JUNCTION     16.53  1098.22     0  03:05       0.466          18       0.180
  WS02003066           JUNCTION      0.00   798.02     0  03:05           0        9.33       0.055
  WS02003059           JUNCTION      0.00   393.00     0  07:31           0        8.22       0.495
  WS02003067           JUNCTION      0.00   797.53     0  03:05           0        9.34       0.112
  WS02004401           JUNCTION      0.00   801.32     0  03:03           0         9.6       0.253
  WS02004402           JUNCTION      0.00   801.36     0  03:03           0        9.58       0.235
  WS02004403           JUNCTION      0.00   801.39     0  03:03           0        9.55       0.211
  WS02004404           JUNCTION      0.16   801.57     0  03:03     0.00457        9.54       0.157
  WS02004406           JUNCTION      0.00   801.64     0  03:03           0         9.5       0.381
  WS02004409           JUNCTION      0.00   801.38     0  03:04           0        9.46       0.209
  WS02004410           JUNCTION      0.00   799.57     0  03:04           0        9.44       0.231
  WS02004411           JUNCTION      0.00   798.34     0  03:04           0        9.42       0.234
  WS02004412           JUNCTION      0.00   797.68     0  03:04           0        9.39       0.247
  WS02004413           JUNCTION      0.00   797.45     0  03:05           0        9.37       0.358
  WS02004405           JUNCTION      0.04   801.62     0  03:03     0.00107        9.52       0.233
  WS02006109           JUNCTION      1.23   787.34     0  03:02      0.0347        9.67       0.236
  WS02006110           JUNCTION      0.00   787.30     0  03:02           0        9.65       0.226
  WS02006111           JUNCTION      0.00   783.83     0  03:03           0        9.61       0.056
  WS02006112           JUNCTION     26.73   801.05     0  03:03      0.0709        9.68       0.327
  WS02006113           JUNCTION      0.00   787.26     0  03:02           0        9.62       0.121
  WS02006115           JUNCTION      0.00   800.98     0  03:03           0        9.65       0.247
  WS02006116           JUNCTION      0.00   801.16     0  03:03           0        9.62       0.231
  WS02006230           JUNCTION     10.28   402.82     0  05:21        0.29        7.58       0.200
  WS02006231           JUNCTION      0.00   392.65     0  05:20           0        7.31       0.208
  WS02006232           JUNCTION      0.00   392.65     0  05:20           0        7.32       0.242
  WS02006234           JUNCTION      0.00   392.72     0  05:20           0        7.34       0.145
  WS02006235           JUNCTION      0.00   392.71     0  05:20           0        7.39       0.168
  WS02006238           JUNCTION      0.00   332.44     0  04:30           0        5.53       0.161
  WS02006240           JUNCTION      0.00   333.73     0  04:30           0        5.53       0.292
  WS02006242           JUNCTION      0.00   335.48     0  04:31           0        5.54       0.341
  WS02006243           JUNCTION      0.00   336.62     0  04:31           0        5.54       0.188
  WS02006245           JUNCTION      0.00   339.94     0  07:31           0        5.55       0.222
  WS02006247           JUNCTION      0.00   346.37     0  07:31           0        5.56       0.190
  WS02006248           JUNCTION      0.00   352.14     0  07:31           0        5.57       0.146
  WS02006249           JUNCTION      0.00   532.09     0  03:02           0        7.13       0.200
  WS02006239           JUNCTION      0.00   333.40     0  04:30           0        5.53       0.266
  WS02006251           JUNCTION      0.08   533.71     0  03:01     0.00217        7.17       0.199
  WS02006252           JUNCTION      0.00   400.00     0  02:30           0        6.74       0.008
  WS02006253           JUNCTION      3.67   134.78     0  03:01     0.00915       0.431       1.941
  WS02006256           JUNCTION      0.00   600.00     0  02:15           0        7.59       0.041
  WS02004138           JUNCTION      0.00   380.00     0  05:00           0        8.12       0.056
  WS02004407           JUNCTION      0.00   801.66     0  03:03           0        9.47       0.094
  WS02006228           JUNCTION      0.00   786.13     0  03:02           0        9.65       0.169
  WS02006229           JUNCTION      0.00   786.12     0  03:02           0        9.66       0.131
  WS02006280           JUNCTION      0.00   611.95     0  03:02           0         2.1       0.003
  WS02006284           JUNCTION      0.10   611.06     0  03:02      0.0027         2.1       0.059
  WS02006287           JUNCTION      0.00   609.83     0  03:02           0         2.1       0.034
  WSF200               JUNCTION      0.00   798.19     0  03:05           0        9.32       0.057
  HS02004901           JUNCTION     32.58    32.58     0  03:01      0.0853      0.0856       2.107
  HS02004881           JUNCTION     13.69   131.68     0  03:01      0.0372       0.403       0.076
  HS02004876           JUNCTION     24.31   119.37     0  03:01      0.0714       0.367       0.153
  HS02004870           JUNCTION     25.15    96.63     0  03:01      0.0703       0.295       0.038
  HS02004862           JUNCTION     23.13    73.48     0  03:01      0.0763       0.225       0.080
  HS02004856           JUNCTION     18.81    51.87     0  03:01      0.0529        0.15       0.973
  HS02004852           JUNCTION      0.00    35.11     0  03:01           0      0.0975       0.061
  HS02004848           JUNCTION     51.30    51.30     0  03:01        0.17        0.17       0.030
  HS02004842           JUNCTION      0.00    15.11     0  03:01           0      0.0852      18.024
  HS02004837           JUNCTION     48.64    62.30     0  03:01       0.302       0.374       0.218
  HS02004830           JUNCTION      0.15    61.39     0  03:01     0.00423       0.364       0.341
  HS02004824           JUNCTION     61.99   121.76     0  03:01       0.222       0.584       0.093
  HS02004817           JUNCTION      0.60   117.99     0  03:02      0.0169       0.601       2.855
  HS02004807           JUNCTION     46.68   158.05     0  03:01       0.129       0.713       0.602
  HS02004802           JUNCTION      0.00   156.92     0  03:03           0       0.709       0.571
  HS02004799           JUNCTION     37.02   389.10     0  03:01       0.105        1.19       0.208
  HS02004792           JUNCTION    159.34   356.44     0  03:01       0.445        1.08       0.038
  HS02004788           JUNCTION     52.70   202.57     0  03:02       0.193       0.638       0.062
  HS02004785           JUNCTION      0.15   157.28     0  03:01     0.00423       0.447       0.112
  HS02004777           JUNCTION      0.03   160.01     0  03:01    0.000846       0.447       1.175
  HS02004770           JUNCTION    133.95   163.77     0  03:01       0.365       0.449       0.699
  HS02004480           JUNCTION      0.00   456.69     0  03:01           0         1.4       0.083
  HS02004479           JUNCTION      0.00    72.19     0  03:02           0       0.228       0.322
  HS02004478           JUNCTION      0.00   609.30     0  03:02           0         2.1       0.019
  YS02001745           JUNCTION    387.96   387.96     0  03:01        2.65        2.65       0.357
  YS02001748           JUNCTION      0.04   607.83     0  02:48     0.00127        2.64       0.883
  YS02001751           JUNCTION      0.01   398.88     0  03:01     0.00031        2.62       0.908
  YS02001754           JUNCTION      0.26   399.21     0  03:01     0.00733         2.6       0.964
  YS02001762           JUNCTION      0.00   394.25     0  02:55           0        1.93       1.106
  YS02001765           JUNCTION      0.00   394.12     0  02:55           0        1.93       1.275
  YS02001767           JUNCTION      0.54   393.94     0  02:55      0.0151        1.96       1.868
  YS02001770           JUNCTION    496.57   496.57     0  03:01        2.97        2.98       1.081
  YS02001774           JUNCTION      0.00   268.19     0  03:05           0        1.01       2.564
  YS02001779           JUNCTION      0.01   268.28     0  03:05    0.000141        0.98       1.573
  YS02001882           JUNCTION      0.00    55.29     0  02:47           0      0.0165      16.442
  YS02001884           JUNCTION      0.00    84.76     0  02:46           0      0.0532      13.555
  YS02001759           JUNCTION    483.56   788.26     0  02:56        2.74        4.64       0.499
  YS02001887           JUNCTION    623.03   623.03     0  03:01        3.16        3.19       0.275
  YS02001890           JUNCTION      0.00   623.14     0  03:01           0        3.14       0.301
  YS02001898           JUNCTION      0.00   517.04     0  03:00           0        3.09       0.115
  YS02001901           JUNCTION      0.00   516.95     0  03:05           0        3.09       0.228
  YS02001904           JUNCTION      0.00   516.88     0  03:05           0        3.08       0.210
  YS02001907           JUNCTION      0.00  1065.19     0  03:02           0        6.88       0.360
  YS02001910           JUNCTION      0.00   553.17     0  02:53           0        3.81       0.318
  YS02001915           JUNCTION    347.37   553.24     0  02:53        2.22        3.86       0.165
  YS02001918           JUNCTION      0.00   290.57     0  02:53           0        1.66       0.116
  YS02001619           JUNCTION    337.96   337.96     0  03:01        2.21        2.21       0.550
  YS02001629           JUNCTION      0.00   231.65     0  02:51           0        1.58       1.846
  YS02001641           JUNCTION      0.00   487.76     0  02:51           0         4.1       0.517
  YS02001644           JUNCTION    368.39   959.37     0  03:31        2.55        8.01       0.327
  YS02001652           JUNCTION      0.00   488.60     0  03:01           0        2.31       1.013
  YS02001655           JUNCTION      0.15   488.16     0  03:01     0.00434        2.33       1.106
  YS02001920           JUNCTION      2.87   290.50     0  02:53      0.0809        1.65       0.187
  YS02001923           JUNCTION      0.04   283.89     0  02:53     0.00106        1.55       0.048
  YS02001926           JUNCTION      0.05   221.14     0  02:53     0.00147        1.53       0.225
  YS02001929           JUNCTION    163.23   163.23     0  03:01        1.53        1.53       0.039
  YS02001658           JUNCTION      0.00   671.33     0  02:45           0        2.36       0.991
  YS02001661           JUNCTION      0.00   745.98     0  02:58           0        3.07      -0.173
  YS02001664           JUNCTION    446.68   446.68     0  03:01        2.35        3.07       0.164
  YS02001622           JUNCTION      0.00   338.26     0  03:01           0        2.19       1.466
  YS02001633           JUNCTION    373.80   487.74     0  02:51        2.63        4.16       0.781
  YS02001649           JUNCTION      0.00  1029.42     0  02:52           0           5       0.751
  YS02001757           JUNCTION      0.00  2005.83     0  02:52           0        10.7       0.868
  YS02001895           JUNCTION      0.00   516.92     0  03:03           0        3.09       0.163
  YS02001625           JUNCTION      0.00   338.01     0  03:01           0        2.16       1.812
  YS02163301           JUNCTION      0.00   231.62     0  02:50           0        1.56       1.568
  YS02163601           JUNCTION      0.11   487.78     0  02:51      0.0031        4.12       0.736
  YS02164001           JUNCTION      0.00   487.83     0  02:51           0         4.1       0.492
  YS02001647           JUNCTION      0.00   742.91     0  02:51           0        3.61       0.789
  YSB1154              JUNCTION     43.21    43.21     0  03:01       0.127       0.128       1.144
  YSB6556              JUNCTION      0.00    41.77     0  03:01           0       0.129       0.980
  YSB1174              JUNCTION     35.94    35.94     0  03:01      0.0924      0.0931       1.403
  YSB1171              JUNCTION      0.00    73.32     0  03:01           0       0.227       2.865
  YS02006553           JUNCTION      0.00   671.96     0  03:32           0        6.13       0.256
  YS02006561           JUNCTION      0.00   969.15     0  03:00           0        8.98       0.008
  YS02006556           JUNCTION      0.00   672.00     0  03:32           0        6.13       0.187
  YS02006558           JUNCTION    532.26   969.31     0  03:00         2.9        9.01       0.061
  YS02001783           JUNCTION      0.00   969.09     0  03:00           0        8.98       0.028
  YS02001784           JUNCTION      1.06   970.16     0  03:00      0.0299           9       0.044
  YS02001786           JUNCTION      0.06   970.13     0  03:00     0.00159           9       0.040
  YS02001788           JUNCTION      0.07   970.26     0  03:00       0.002           9       0.023
  YS02001790           JUNCTION      0.15   970.39     0  03:01     0.00437           9       0.031
  YS02001791           JUNCTION      0.00   970.51     0  03:01           0           9       0.014
  YS02001793           JUNCTION      0.00   970.50     0  03:00           0           9       0.005
  WS02004139           JUNCTION      0.32   380.32     0  05:02     0.00905        8.13       0.474
  WSC                  OUTFALL       0.00  1100.50     0  03:08           0        17.9       0.000
  3                    OUTFALL       0.00   545.67     0  03:10           0        5.69       0.000
  4                    OUTFALL       0.00   327.93     0  03:03           0        1.55       0.000
  5                    OUTFALL       0.00     0.00     0  00:00           0           0       0.000 ltr
  JK-storage           STORAGE       0.00   970.46     0  03:00           0        9.15     -12.884
  CC-storage           STORAGE       0.00  2005.75     0  02:52           0        10.1       0.600
  XR-storage           STORAGE     849.17   849.17     0  03:01        10.2        10.8      -0.001
  
  
  **********************
  Node Surcharge Summary
  **********************
  
  Surcharging occurs when water rises above the top of the highest conduit.
  ---------------------------------------------------------------------
                                               Max. Height   Min. Depth
                                   Hours       Above Crown    Below Rim
  Node                 Type      Surcharged         Meters       Meters
  ---------------------------------------------------------------------
  WS02004401           JUNCTION        0.32          0.106        1.554
  WS02004402           JUNCTION        0.38          0.108        1.632
  WS02004403           JUNCTION        0.40          0.098        1.932
  WS02004404           JUNCTION        0.83          0.151        2.629
  WS02004406           JUNCTION        0.67          0.101        2.349
  WS02004405           JUNCTION        0.75          0.132        2.668
  WS02006109           JUNCTION        4.08          0.438        1.382
  WS02006110           JUNCTION        1.13          0.196        1.654
  WS02006112           JUNCTION        1.31          0.380        1.300
  WS02006115           JUNCTION        0.11          0.047        2.203
  WS02006116           JUNCTION        0.14          0.055        2.235
  WS02006230           JUNCTION        0.81          0.301        1.269
  WS02006231           JUNCTION        0.93          0.306        1.224
  WS02006232           JUNCTION        4.32          0.415        1.065
  WS02006234           JUNCTION        1.39          0.284        0.956
  WS02006235           JUNCTION        3.37          0.300        0.990
  WS02006238           JUNCTION        3.88          0.322        1.108
  WS02006240           JUNCTION        1.34          0.204        1.186
  WS02006242           JUNCTION        3.41          0.233        0.587
  WS02006243           JUNCTION        0.87          0.115        0.655
  WS02006245           JUNCTION        0.33          0.068        0.782
  WS02006247           JUNCTION        0.42          0.065        0.695
  WS02006239           JUNCTION        2.12          0.246        1.044
  WS02006252           JUNCTION        4.28          0.193        0.907
  WS02006228           JUNCTION        3.94          0.550        1.650
  YS02001748           JUNCTION        5.00          1.190        0.000
  YS02001751           JUNCTION        5.10          1.200        0.000
  YS02001754           JUNCTION        5.27          1.113        0.037
  YS02001762           JUNCTION        5.51          1.084        0.066
  YS02001765           JUNCTION        5.49          1.027        0.073
  YS02001767           JUNCTION        5.47          0.964        0.066
  YS02001770           JUNCTION        5.45          0.920        0.000
  YS02001774           JUNCTION        5.50          1.011        0.039
  YS02001779           JUNCTION        5.26          0.680        0.000
  YS02001882           JUNCTION        1.02          0.651        0.179
  YS02001884           JUNCTION        1.05          0.684        0.186
  YS02001759           JUNCTION        5.54          1.119        0.091
  YS02001887           JUNCTION        1.13          0.761        0.189
  YS02001890           JUNCTION        1.16          0.760        0.000
  YS02001898           JUNCTION        0.98          0.544        0.196
  YS02001901           JUNCTION        1.10          0.684        0.186
  YS02001904           JUNCTION        1.08          0.643        0.207
  YS02001907           JUNCTION        1.67          0.950        0.000
  YS02001910           JUNCTION        1.20          0.795        0.305
  YS02001915           JUNCTION        1.01          0.621        0.379
  YS02001918           JUNCTION        0.78          0.329        0.481
  YS02001619           JUNCTION        5.11          0.610        0.000
  YS02001629           JUNCTION        5.12          0.470        0.000
  YS02001641           JUNCTION        5.50          0.949        0.151
  YS02001644           JUNCTION        5.50          0.920        0.000
  YS02001652           JUNCTION        5.27          1.130        0.000
  YS02001655           JUNCTION        5.11          1.200        0.000
  YS02001920           JUNCTION        0.82          0.423        0.717
  YS02001926           JUNCTION        0.01          0.104        0.796
  YS02001658           JUNCTION        5.02          1.300        0.000
  YS02001661           JUNCTION        0.25          1.390        0.000
  YS02001622           JUNCTION        5.13          0.620        0.000
  YS02001633           JUNCTION        5.48          0.948        0.112
  YS02001649           JUNCTION        5.52          1.050        0.000
  YS02001757           JUNCTION        5.62          1.210        0.000
  YS02001895           JUNCTION        1.00          0.571        0.179
  YS02001625           JUNCTION        5.32          0.780        0.000
  YS02163301           JUNCTION        5.46          0.914        0.116
  YS02163601           JUNCTION        5.52          1.005        0.075
  YS02164001           JUNCTION        5.49          0.941        0.159
  YS02001647           JUNCTION        5.28          0.811        0.089
  YS02006553           JUNCTION        1.73          0.970        0.220
  YS02006561           JUNCTION        0.90          0.314        0.836
  YS02006556           JUNCTION        1.41          0.893        0.457
  YS02006558           JUNCTION        1.37          0.876        0.524
  YS02001783           JUNCTION        1.40          0.788        0.812
  YS02001784           JUNCTION        1.47          1.008        0.482
  YS02001786           JUNCTION        1.41          1.242        0.188
  YS02001788           JUNCTION        1.40          1.480        0.000
  YS02001790           JUNCTION        2.07          1.157        0.000
  YS02001791           JUNCTION        2.10          0.903        1.017
  YS02001793           JUNCTION        2.17          1.062        1.538
  
  
  *********************
  Node Flooding Summary
  *********************
  
  Flooding refers to all water that overflows a node, whether it ponds or not.
  --------------------------------------------------------------------------
                                                             Total   Maximum
                                 Maximum   Time of Max       Flood    Ponded
                        Hours       Rate    Occurrence      Volume     Depth
  Node                 Flooded       LPS   days hr:min    10^6 ltr    Meters
  --------------------------------------------------------------------------
  YS02001748              0.01    206.44      0  02:48       0.000     0.000
  YS02001751              0.01      8.43      0  02:48       0.000     0.000
  YS02001770              0.01      5.14      0  02:49       0.000     0.000
  YS02001779              2.37    268.25      0  03:05       0.961     0.000
  YS02001890              0.23    106.55      0  03:01       0.038     0.000
  YS02001907              0.65    617.40      0  03:02       0.735     0.000
  YS02001619              0.01     34.70      0  02:45       0.000     0.000
  YS02001629              0.01     26.99      0  02:44       0.000     0.000
  YS02001644              3.84    959.33      0  03:31       5.749     0.000
  YS02001652              0.01     23.34      0  03:08       0.000     0.000
  YS02001655              0.01    119.09      0  02:43       0.000     0.000
  YS02001658              0.01    281.08      0  02:45       0.000     0.000
  YS02001661              0.01    180.44      0  03:08       0.001     0.000
  YS02001622              0.01     47.26      0  02:45       0.000     0.000
  YS02001649              0.10     49.98      0  03:08       0.006     0.000
  YS02001757              0.01     13.18      0  02:48       0.000     0.000
  YS02001625              1.14    316.12      0  03:01       0.546     0.000
  YS02001788              0.01    118.17      0  02:45       0.000     0.000
  YS02001790              0.01    148.22      0  02:44       0.000     0.000
  JK-storage              1.97    669.83      0  03:00       2.931     0.000
  XR-storage              2.61    490.28      0  03:08       2.016     0.000
  
  
  **********************
  Storage Volume Summary
  **********************
  
  --------------------------------------------------------------------------------------------------
                         Average     Avg  Evap Exfil       Maximum     Max    Time of Max    Maximum
                          Volume    Pcnt  Pcnt  Pcnt        Volume    Pcnt     Occurrence    Outflow
  Storage Unit           1000 m3    Full  Loss  Loss       1000 m3    Full    days hr:min        LPS
  --------------------------------------------------------------------------------------------------
  JK-storage               0.121      42     0     0         0.291     100       0  02:45     600.00
  CC-storage               2.908      19     0     0         3.806      24       0  03:57     400.00
  XR-storage               0.750      81     0     0         0.926     100       0  03:08     380.00
  
  
  ***********************
  Outfall Loading Summary
  ***********************
  
  -----------------------------------------------------------
                         Flow       Avg       Max       Total
                         Freq      Flow      Flow      Volume
  Outfall Node           Pcnt       LPS       LPS    10^6 ltr
  -----------------------------------------------------------
  WSC                   99.99    721.68   1100.50      17.861
  3                     95.53    278.50    545.67       5.689
  4                     68.87    101.79    327.93       1.549
  5                      0.00      0.00      0.00       0.000
  -----------------------------------------------------------
  System                66.10   1101.97   1887.63      25.100
  
  
  ********************
  Link Flow Summary
  ********************
  
  -----------------------------------------------------------------------------
                                 Maximum  Time of Max   Maximum    Max/    Max/
                                  |Flow|   Occurrence   |Veloc|    Full    Full
  Link                 Type          LPS  days hr:min     m/sec    Flow   Depth
  -----------------------------------------------------------------------------
  WS02003066WSF200     CONDUIT    798.19     0  03:05      2.91    0.13    0.29
  WS02006287WS02006284 CONDUIT    610.97     0  03:02      2.31    0.28    0.37
  WS02006284WS02006280 CONDUIT    611.95     0  03:02      2.55    0.26    0.35
  WS02006280WS02006229 CONDUIT    612.08     0  03:02      4.12    0.13    0.24
  WS02006229WS02006228 CONDUIT    786.13     0  03:02      1.56    2.60    1.00
  WS02006256WS02006235 CONDUIT    166.25     0  00:01      2.58    1.76    1.00
  WS02006253WS02006251 CONDUIT    133.43     0  03:01      0.45    0.40    1.00
  WS02006252WS02006251 CONDUIT    400.57     0  04:31      3.19    1.47    1.00
  WS02006251WS02006249 CONDUIT    532.09     0  03:02      1.38    1.53    1.00
  WS02006249WS02006248 CONDUIT    352.14     0  07:31      1.15    1.93    0.99
  WS02006248WS02006247 CONDUIT    346.37     0  07:31      1.11    0.75    1.00
  WS02006247WS02006245 CONDUIT    339.94     0  07:31      1.06    2.70    1.00
  WS02006245WS02006243 CONDUIT    336.62     0  04:31      1.06    1.00    1.00
  WS02006243WS02006242 CONDUIT    335.48     0  04:31      0.93    0.72    1.00
  WS02006242WS02006240 CONDUIT    333.73     0  04:30      0.90    1.33    1.00
  WS02006240WS02006239 CONDUIT    333.40     0  04:30      0.94    1.05    1.00
  WS02006239WS02006238 CONDUIT    332.44     0  04:30      0.90    1.06    1.00
  WS02006238WS02006235 CONDUIT    331.51     0  04:30      1.25    0.74    1.00
  WS02006235WS02006234 CONDUIT    392.72     0  05:20      1.04    4.14    1.00
  WS02006234WS02006232 CONDUIT    392.65     0  05:20      1.13    0.79    1.00
  WS02006232WS02006231 CONDUIT    392.65     0  05:20      1.06    0.82    1.00
  WS02006231WS02006230 CONDUIT    392.54     0  05:21      1.35    5.95    1.00
  WS02006230WS02006229 CONDUIT    402.82     0  05:21      1.05    8.96    1.00
  WS02006228WS02006109 CONDUIT    786.11     0  03:02      1.56    3.43    1.00
  WS02006116WS02004401 CONDUIT    801.32     0  03:03      1.02    1.10    1.00
  WS02006115WS02006116 CONDUIT    801.16     0  03:03      1.02    1.03    1.00
  WS02006113WS02006111 CONDUIT    783.83     0  03:03      2.60    0.94    0.75
  WS02006112WS02006115 CONDUIT    800.98     0  03:03      1.02    0.47    1.00
  WS02006111WS02006112 CONDUIT    784.11     0  03:03      1.72    0.37    0.87
  WS02006110WS02006113 CONDUIT    787.26     0  03:02      1.68    0.72    0.88
  WS02006109WS02006110 CONDUIT    787.30     0  03:02      1.57    1.51    1.00
  WS02004411WS02004412 CONDUIT    797.68     0  03:04      1.14    1.13    0.84
  WS02004401WS02004402 CONDUIT    801.36     0  03:03      1.02    0.96    1.00
  WS02004413WS02003067 CONDUIT    797.53     0  03:05      1.39    0.34    0.69
  WS02004412WS02004413 CONDUIT    797.45     0  03:05      1.07    0.53    0.90
  WS02004410WS02004411 CONDUIT    798.34     0  03:04      1.13    1.09    0.84
  WS02004409WS02004410 CONDUIT    799.57     0  03:04      1.13    1.03    0.85
  WS02004407WS02004409 CONDUIT    801.38     0  03:04      1.61    0.28    0.61
  WS02004406WS02004407 CONDUIT    801.66     0  03:03      1.40    0.36    0.68
  WS02004405WS02004406 CONDUIT    801.64     0  03:03      1.02    1.58    1.00
  WS02004404WS02004405 CONDUIT    801.58     0  03:03      1.02    7.85    1.00
  WS02004403WS02004404 CONDUIT    801.41     0  03:03      1.02    0.58    1.00
  WS02004402WS02004403 CONDUIT    801.39     0  03:03      1.02    1.15    1.00
  WS02004139WS02001211 CONDUIT    381.14     0  07:30      0.69    0.48    0.60
  WS02004138WS02004139 CONDUIT    380.00     0  05:02      2.94    0.08    0.44
  WS02003067WS02003066 CONDUIT    798.02     0  03:05      1.50    0.26    0.48
  WS02001213WS02003059 CONDUIT    393.00     0  07:31      0.68    0.65    0.80
  WS02001212WS02001213 CONDUIT    390.81     0  07:30      1.31    0.60    0.49
  WS02001211WS02001212 CONDUIT    389.59     0  07:30      0.77    0.30    0.66
  WS02003072WS02003073 CONDUIT   1098.57     0  03:07      1.83    2.37    0.53
  WS02003069WS02003072 CONDUIT   1098.50     0  03:07      1.71    0.53    0.55
  WS02003060WS02003069 CONDUIT   1098.37     0  03:06      1.94    0.43    0.50
  WS02003059WS02003060 CONDUIT    396.00     0  07:31      0.93    0.26    0.70
  HS02004901HS02004770 CONDUIT     32.24     0  03:01      0.09    0.12    0.50
  HS02004876HS02004881 CONDUIT    119.33     0  03:01      1.17    1.27    0.15
  HS02004870HS02004876 CONDUIT     96.13     0  03:01      0.79    0.06    0.17
  HS02004842HS02004848 CONDUIT     15.11     0  03:01      0.07    0.01    0.33
  HS02004837HS02004842 CONDUIT     16.10     0  03:03      0.41    0.01    0.34
  HS02004830HS02004837 CONDUIT     61.24     0  03:01      0.66    0.06    0.13
  HS02004824HS02004830 CONDUIT     60.79     0  03:01      0.63    0.08    0.15
  HS02004817HS02004824 CONDUIT    117.39     0  03:02      0.30    0.05    0.56
  HS02004770HS02004777 CONDUIT    159.98     0  03:01      0.45    0.29    0.51
  HS02004799HS02004480 CONDUIT    387.38     0  03:01      1.00    0.49    0.56
  HS02004792HS02004799 CONDUIT    353.06     0  03:01      1.12    0.22    0.45
  HS02004788HS02004792 CONDUIT    202.14     0  03:02      1.22    0.13    0.24
  HS02004785HS02004788 CONDUIT    156.68     0  03:02      0.85    1.18    0.26
  HS02004777HS02004785 CONDUIT    157.13     0  03:01      0.53    0.19    0.42
  HS02004480HS02004478 CONDUIT    456.75     0  03:01      1.47    1.92    0.44
  HS02004479HS02004480 CONDUIT     74.07     0  03:02      0.22    0.07    0.53
  HS02004862HS02004870 CONDUIT     73.11     0  03:01      0.77    0.08    0.14
  HS02004848HS02004852 CONDUIT     35.11     0  03:01      0.52    0.04    0.10
  HS02004856HS02004862 CONDUIT     51.23     0  03:01      0.58    0.05    0.13
  HS02004852HS02004856 CONDUIT     35.02     0  03:02      0.32    0.04    0.16
  HS02004802HS02004478 CONDUIT    160.68     0  03:04      0.54    0.14    0.45
  HS02004478WS02006287 CONDUIT    609.83     0  03:02      2.03    0.17    0.33
  HS02004817HS02004807 CONDUIT    120.81     0  03:04      0.24    0.07    0.73
  HS02004807HS02004802 CONDUIT    156.92     0  03:03      0.45    0.30    0.51
  YS02001759YS02001757 CONDUIT    788.37     0  02:56      1.00    0.56    1.00
  YS02001762YS02001759 CONDUIT    394.27     0  02:55      0.50    0.45    1.00
  YS02001765YS02001762 CONDUIT    394.25     0  02:55      0.50    0.37    1.00
  YS02001770YS02001767 CONDUIT    393.40     0  02:55      0.50    1.56    1.00
  YS02001774YS02001770 CONDUIT    268.19     0  03:05      0.34    0.17    1.00
  YS02001779YS02001774 CONDUIT    268.28     0  03:05      0.34    0.14    1.00
  YS02001649YS02001757 CONDUIT   1029.13     0  02:52      1.31    0.62    1.00
  YS02001767YS02001765 CONDUIT    394.12     0  02:55      0.50    0.50    1.00
  YS02006561YS02001783 CONDUIT    969.09     0  03:00      2.13    0.50    1.00
  YS02001783YS02001784 CONDUIT    969.10     0  03:00      1.93    1.34    1.00
  YS02001784YS02001785 CONDUIT    970.08     0  03:00      1.93    2.26    1.00
  YS02001788YS02001790 CONDUIT    970.24     0  03:01      2.33    0.72    1.00
  YS02001790YS02001791 CONDUIT    970.51     0  03:01      2.86    1.06    1.00
  YS02001791YS02001793 CONDUIT    970.50     0  03:00      5.73    0.42    1.00
  YS02001910YS02001907 CONDUIT    553.28     0  02:53      0.70    0.31    1.00
  YS02001786YS02001788 CONDUIT    970.19     0  03:00      2.23    1.87    1.00
  YS02001915YS02001910 CONDUIT    553.17     0  02:53      0.70    0.27    1.00
  YS02001918YS02001915 CONDUIT    291.20     0  02:53      0.44    0.16    1.00
  YS02001923YS02001920 CONDUIT    287.63     0  02:53      0.71    0.13    1.00
  YS02001926YS02001923 CONDUIT    283.86     0  02:53      0.82    0.41    0.98
  YS02001929YS02001926 CONDUIT    221.08     0  02:53      0.87    0.10    0.86
  YS02001920YS02001918 CONDUIT    290.57     0  02:53      0.70    0.28    1.00
  YS02001629YS02163301 CONDUIT    231.62     0  02:50      0.29    0.29    1.00
  YS02001619YS02001622 CONDUIT    338.26     0  03:01      0.60    0.50    1.00
  YS02001622YS02001625 CONDUIT    338.01     0  03:01      0.43    0.18    1.00
  YS02001625YS02001629 CONDUIT    231.65     0  02:51      0.29    0.11    1.00
  YS02163301YS02001633 CONDUIT    231.34     0  02:50      0.29    0.22    1.00
  YS02163601YS02164001 CONDUIT    487.83     0  02:51      0.62    0.43    1.00
  YS02164001YS02001641 CONDUIT    487.76     0  02:51      0.62    0.67    1.00
  YS02001641YS02001644 CONDUIT    487.70     0  02:51      0.62    1.58    1.00
  YS02001647YS02001649 CONDUIT    742.76     0  02:51      0.95    0.39    1.00
  YS02006553YS02006556 CONDUIT    672.00     0  03:32      0.86    0.57    1.00
  YS02006556YS02006558 CONDUIT    672.00     0  03:32      0.86    0.53    1.00
  YSB6556YSB1171       CONDUIT     41.33     0  03:02      0.13    0.04    0.80
  YS02001907YS02006553 CONDUIT    671.96     0  03:32      0.75    0.79    1.00
  YS02006558YS02006561 CONDUIT    969.15     0  03:00      3.43    2.14    1.00
  YS02001633YS02163601 CONDUIT    487.67     0  02:51      0.62    0.51    1.00
  YS02001644YS02001647 CONDUIT    742.91     0  02:51      0.95    0.44    1.00
  YS02001745YS02001748 CONDUIT    607.79     0  02:48      1.48    0.23    0.94
  YS02001748YS02001751 CONDUIT    398.87     0  03:01      1.03    0.20    1.00
  YS02001751YS02001754 CONDUIT    398.95     0  03:01      0.84    0.19    1.00
  YS02001754YS02001757 CONDUIT    399.09     0  03:01      0.51    0.16    1.00
  YS02001882YS02001884 CONDUIT     55.29     0  02:47      0.08    0.06    1.00
  YS02001884YS02001887 CONDUIT     84.76     0  02:46      0.11    0.11    1.00
  YS02001890YS02001895 CONDUIT    516.92     0  03:03      0.66    0.24    1.00
  YS02001895YS02001898 CONDUIT    517.04     0  03:00      0.66    0.90    1.00
  YS02001898YS02001901 CONDUIT    516.95     0  03:05      0.66    0.33    1.00
  YS02001901YS02001904 CONDUIT    516.88     0  03:05      0.66    0.80    1.00
  YS02001904YS02001907 CONDUIT    516.93     0  03:05      0.66    0.18    1.00
  YS02001887YS02001890 CONDUIT    623.14     0  03:01      0.79    1.07    1.00
  YS02001652YS02001649 CONDUIT    488.62     0  03:01      0.62    0.24    1.00
  YS02001655YS02001652 CONDUIT    488.60     0  03:01      0.89    0.24    1.00
  YS02001658YS02001655 CONDUIT    488.00     0  03:01      1.18    0.21    1.00
  YS02001661YS02001658 CONDUIT    671.33     0  02:45      1.56    0.26    1.00
  YS02001664YS02001661 CONDUIT    745.98     0  02:58      1.61    0.23    0.72
  YSB1154YSB6556       CONDUIT     41.77     0  03:01      0.19    0.08    0.69
  YSB1174YSB1171       CONDUIT     34.49     0  03:01      0.10    0.05    0.81
  YSB1171HS02004479    CONDUIT     72.19     0  03:02      0.54    0.05    0.65
  HS02004881HS02006253 CONDUIT    131.62     0  03:01      1.58    0.03    0.38
  YS02001793JiankangQianchi CONDUIT    970.46     0  03:00     14.63    0.08    1.00
  YS02001757CaochengTiaoxuchi CONDUIT   2005.75     0  02:52      2.86    0.88    1.00
  WSF200WS02003060     CONDUIT    798.54     0  03:05      1.89    0.18    0.40
  1                    CONDUIT   1100.50     0  03:08      3.41    0.38    0.43
  2                    CONDUIT    327.93     0  03:03      6.54    0.78    0.67
  3                    CONDUIT    545.67     0  03:10      9.93    0.87    0.73
  4                    CONDUIT      0.00     0  00:00      0.00    0.00    0.00
  CC-Pump-1            PUMP       200.00     0  02:06              1.00
  CC-Pump-2            PUMP       200.00     0  02:20              1.00
  JK-Pump-1            PUMP       300.00     0  00:00              1.00
  JK-Pump-2            PUMP       300.00     0  02:15              1.00
  XR-Pump-1            PUMP        95.00     0  00:00              1.00
  XR-Pump-2            PUMP        95.00     0  00:20              1.00
  XR-Pump-3            PUMP        95.00     0  00:20              1.00
  XR-Pump-4            PUMP        95.00     0  00:00              1.00
  
  
  ***************************
  Flow Classification Summary
  ***************************
  
  -------------------------------------------------------------------------------------
                      Adjusted    ---------- Fraction of Time in Flow Class ---------- 
                       /Actual         Up    Down  Sub   Sup   Up    Down  Norm  Inlet 
  Conduit               Length    Dry  Dry   Dry   Crit  Crit  Crit  Crit  Ltd   Ctrl  
  -------------------------------------------------------------------------------------
  WS02003066WSF200        1.00   0.03  0.03  0.00  0.00  0.95  0.00  0.00  0.59  0.00
  WS02006287WS02006284    1.00   0.04  0.01  0.00  0.57  0.38  0.00  0.00  0.67  0.00
  WS02006284WS02006280    1.00   0.04  0.00  0.00  0.00  0.00  0.00  0.96  0.00  0.00
  WS02006280WS02006229    1.00   0.04  0.00  0.00  0.00  0.00  0.00  0.96  0.00  0.00
  WS02006229WS02006228    1.00   0.00  0.00  0.00  0.99  0.00  0.00  0.01  0.00  0.00
  WS02006256WS02006235    1.00   0.00  0.00  0.00  1.00  0.00  0.00  0.00  0.00  0.00
  WS02006253WS02006251    1.00   0.03  0.01  0.00  0.96  0.00  0.00  0.00  0.00  0.00
  WS02006252WS02006251    1.00   0.07  0.00  0.00  0.00  0.00  0.93  0.00  0.00  0.00
  WS02006251WS02006249    1.00   0.00  0.00  0.00  1.00  0.00  0.00  0.00  0.24  0.00
  WS02006249WS02006248    1.00   0.00  0.02  0.00  0.92  0.00  0.06  0.00  0.00  0.00
  WS02006248WS02006247    1.00   0.02  0.00  0.00  0.98  0.00  0.00  0.00  0.12  0.00
  WS02006247WS02006245    1.00   0.02  0.00  0.00  0.98  0.00  0.00  0.00  0.00  0.00
  WS02006245WS02006243    1.00   0.01  0.00  0.00  0.95  0.00  0.00  0.03  0.01  0.00
  WS02006243WS02006242    1.00   0.01  0.00  0.00  0.99  0.00  0.00  0.00  0.21  0.00
  WS02006242WS02006240    1.00   0.00  0.00  0.00  1.00  0.00  0.00  0.00  0.00  0.00
  WS02006240WS02006239    1.00   0.00  0.00  0.00  0.97  0.00  0.00  0.03  0.01  0.00
  WS02006239WS02006238    1.00   0.00  0.00  0.00  1.00  0.00  0.00  0.00  0.00  0.00
  WS02006238WS02006235    1.00   0.00  0.00  0.00  1.00  0.00  0.00  0.00  0.00  0.00
  WS02006235WS02006234    1.00   0.00  0.00  0.00  0.97  0.00  0.03  0.00  0.00  0.00
  WS02006234WS02006232    1.00   0.00  0.00  0.00  1.00  0.00  0.00  0.00  0.00  0.00
  WS02006232WS02006231    1.00   0.00  0.00  0.00  0.99  0.00  0.00  0.00  0.00  0.00
  WS02006231WS02006230    1.00   0.00  0.00  0.00  0.87  0.00  0.12  0.00  0.00  0.00
  WS02006230WS02006229    1.00   0.00  0.00  0.00  0.99  0.00  0.00  0.01  0.01  0.00
  WS02006228WS02006109    1.00   0.00  0.00  0.00  1.00  0.00  0.00  0.00  0.00  0.00
  WS02006116WS02004401    1.00   0.02  0.00  0.00  0.98  0.00  0.00  0.00  0.00  0.00
  WS02006115WS02006116    1.00   0.02  0.00  0.00  0.97  0.00  0.00  0.01  0.00  0.00
  WS02006113WS02006111    1.00   0.02  0.00  0.00  0.03  0.95  0.00  0.00  0.08  0.00
  WS02006112WS02006115    1.00   0.02  0.00  0.00  0.98  0.00  0.00  0.00  0.00  0.00
  WS02006111WS02006112    1.00   0.02  0.00  0.00  0.98  0.00  0.00  0.00  0.88  0.00
  WS02006110WS02006113    1.00   0.01  0.01  0.00  0.98  0.00  0.00  0.00  0.00  0.00
  WS02006109WS02006110    1.00   0.00  0.01  0.00  0.98  0.00  0.01  0.00  0.00  0.00
  WS02004411WS02004412    1.00   0.03  0.00  0.00  0.97  0.00  0.00  0.00  0.00  0.00
  WS02004401WS02004402    1.00   0.02  0.00  0.00  0.98  0.00  0.00  0.00  0.00  0.00
  WS02004413WS02003067    1.00   0.04  0.01  0.00  0.00  0.00  0.95  0.00  0.00  0.00
  WS02004412WS02004413    1.00   0.04  0.00  0.00  0.96  0.00  0.00  0.00  0.03  0.00
  WS02004410WS02004411    1.00   0.03  0.00  0.00  0.97  0.00  0.00  0.00  0.03  0.00
  WS02004409WS02004410    1.00   0.03  0.00  0.00  0.97  0.00  0.00  0.00  0.03  0.00
  WS02004407WS02004409    1.00   0.03  0.00  0.00  0.96  0.00  0.00  0.00  0.89  0.00
  WS02004406WS02004407    1.00   0.00  0.03  0.00  0.97  0.00  0.00  0.00  0.00  0.00
  WS02004405WS02004406    1.00   0.00  0.00  0.00  1.00  0.00  0.00  0.00  0.01  0.00
  WS02004404WS02004405    1.00   0.00  0.00  0.00  1.00  0.00  0.00  0.00  0.00  0.00
  WS02004403WS02004404    1.00   0.00  0.02  0.00  0.98  0.00  0.00  0.00  0.01  0.00
  WS02004402WS02004403    1.00   0.02  0.00  0.00  0.98  0.00  0.00  0.00  0.00  0.00
  WS02004139WS02001211    1.00   0.00  0.00  0.00  1.00  0.00  0.00  0.00  0.00  0.00
  WS02004138WS02004139    1.00   0.00  0.00  0.00  0.99  0.01  0.00  0.00  1.00  0.00
  WS02003067WS02003066    1.00   0.05  0.00  0.00  0.95  0.00  0.00  0.00  0.00  0.00
  WS02001213WS02003059    1.00   0.00  0.00  0.00  0.99  0.00  0.00  0.00  0.00  0.00
  WS02001212WS02001213    1.00   0.00  0.00  0.00  0.91  0.00  0.08  0.00  0.00  0.00
  WS02001211WS02001212    1.00   0.00  0.00  0.00  1.00  0.00  0.00  0.00  0.00  0.00
  WS02003072WS02003073    1.00   0.00  0.00  0.00  0.00  0.00  0.00  1.00  0.00  0.00
  WS02003069WS02003072    1.00   0.00  0.00  0.00  0.99  0.01  0.00  0.00  0.18  0.00
  WS02003060WS02003069    1.00   0.00  0.00  0.00  0.99  0.01  0.00  0.00  0.08  0.00
  WS02003059WS02003060    1.00   0.00  0.00  0.00  1.00  0.00  0.00  0.00  0.01  0.00
  HS02004901HS02004770    1.00   0.04  0.00  0.00  0.96  0.00  0.00  0.00  0.01  0.00
  HS02004876HS02004881    1.00   0.02  0.00  0.00  0.87  0.11  0.00  0.00  0.00  0.00
  HS02004870HS02004876    1.00   0.01  0.00  0.00  0.99  0.00  0.00  0.00  0.95  0.00
  HS02004842HS02004848    1.00   0.00  0.04  0.00  0.96  0.00  0.00  0.00  0.58  0.00
  HS02004837HS02004842    1.00   0.00  0.00  0.00  0.99  0.01  0.00  0.00  0.11  0.00
  HS02004830HS02004837    1.00   0.00  0.00  0.00  1.00  0.00  0.00  0.00  0.99  0.00
  HS02004824HS02004830    1.00   0.00  0.00  0.00  1.00  0.00  0.00  0.00  0.01  0.00
  HS02004817HS02004824    1.00   0.00  0.00  0.00  1.00  0.00  0.00  0.00  0.98  0.00
  HS02004770HS02004777    1.00   0.00  0.04  0.00  0.96  0.00  0.00  0.00  0.04  0.00
  HS02004799HS02004480    1.00   0.00  0.02  0.00  0.95  0.00  0.02  0.00  0.00  0.00
  HS02004792HS02004799    1.00   0.00  0.00  0.00  0.99  0.01  0.00  0.00  0.98  0.00
  HS02004788HS02004792    1.00   0.00  0.00  0.00  0.99  0.01  0.00  0.00  0.98  0.00
  HS02004785HS02004788    1.00   0.00  0.00  0.00  1.00  0.00  0.00  0.00  0.00  0.00
  HS02004777HS02004785    1.00   0.00  0.00  0.00  1.00  0.00  0.00  0.00  0.15  0.00
  HS02004480HS02004478    1.00   0.04  0.00  0.00  0.66  0.00  0.00  0.30  0.00  0.00
  HS02004479HS02004480    1.00   0.02  0.00  0.00  0.98  0.00  0.00  0.00  0.13  0.00
  HS02004862HS02004870    1.00   0.00  0.00  0.00  1.00  0.00  0.00  0.00  0.06  0.00
  HS02004848HS02004852    1.00   0.04  0.00  0.00  0.96  0.00  0.00  0.00  0.64  0.00
  HS02004856HS02004862    1.00   0.00  0.05  0.00  0.95  0.00  0.00  0.00  0.79  0.00
  HS02004852HS02004856    1.00   0.04  0.00  0.00  0.96  0.00  0.00  0.00  0.81  0.00
  HS02004802HS02004478    1.00   0.04  0.00  0.00  0.96  0.00  0.00  0.00  0.03  0.00
  HS02004478WS02006287    1.00   0.05  0.00  0.00  0.72  0.24  0.00  0.00  0.66  0.00
  HS02004817HS02004807    1.00   0.00  0.04  0.00  0.96  0.00  0.00  0.00  0.01  0.00
  HS02004807HS02004802    1.00   0.04  0.00  0.00  0.96  0.00  0.00  0.00  0.00  0.00
  YS02001759YS02001757    1.00   0.00  0.00  0.00  1.00  0.00  0.00  0.00  0.17  0.00
  YS02001762YS02001759    1.00   0.00  0.00  0.00  1.00  0.00  0.00  0.00  0.04  0.00
  YS02001765YS02001762    1.00   0.00  0.00  0.00  1.00  0.00  0.00  0.00  0.17  0.00
  YS02001770YS02001767    1.00   0.00  0.00  0.00  1.00  0.00  0.00  0.00  0.00  0.00
  YS02001774YS02001770    1.00   0.00  0.04  0.00  0.96  0.00  0.00  0.00  0.04  0.00
  YS02001779YS02001774    1.00   0.00  0.00  0.00  1.00  0.00  0.00  0.00  0.22  0.00
  YS02001649YS02001757    1.00   0.00  0.00  0.00  1.00  0.00  0.00  0.00  0.17  0.00
  YS02001767YS02001765    1.00   0.00  0.00  0.00  1.00  0.00  0.00  0.00  0.01  0.00
  YS02006561YS02001783    1.00   0.05  0.00  0.00  0.36  0.58  0.00  0.00  0.53  0.00
  YS02001783YS02001784    1.00   0.00  0.05  0.00  0.95  0.00  0.00  0.00  0.01  0.00
  YS02001784YS02001785    1.00   0.00  0.00  0.00  1.00  0.00  0.00  0.00  0.21  0.00
  YS02001788YS02001790    1.00   0.00  0.00  0.00  0.41  0.59  0.00  0.00  0.46  0.00
  YS02001790YS02001791    1.00   0.00  0.00  0.00  0.37  0.63  0.00  0.00  0.46  0.00
  YS02001791YS02001793    1.00   0.00  0.00  0.00  0.37  0.63  0.00  0.00  0.01  0.00
  YS02001910YS02001907    1.00   0.00  0.00  0.00  0.98  0.00  0.00  0.02  0.13  0.00
  YS02001786YS02001788    1.00   0.00  0.00  0.00  0.40  0.60  0.00  0.00  0.00  0.00
  YS02001915YS02001910    1.00   0.00  0.00  0.00  0.99  0.01  0.00  0.00  0.19  0.00
  YS02001918YS02001915    1.00   0.00  0.01  0.00  0.98  0.01  0.00  0.00  0.56  0.00
  YS02001923YS02001920    1.00   0.00  0.00  0.00  1.00  0.00  0.00  0.00  0.83  0.00
  YS02001926YS02001923    1.00   0.00  0.03  0.00  0.18  0.00  0.79  0.00  0.00  0.00
  YS02001929YS02001926    1.00   0.00  0.04  0.00  0.96  0.00  0.00  0.00  0.75  0.00
  YS02001920YS02001918    1.00   0.00  0.01  0.00  0.99  0.00  0.00  0.00  0.00  0.00
  YS02001629YS02163301    1.00   0.05  0.00  0.00  0.95  0.00  0.00  0.00  0.00  0.00
  YS02001619YS02001622    1.00   0.04  0.00  0.00  0.96  0.00  0.00  0.00  0.00  0.00
  YS02001622YS02001625    1.00   0.04  0.00  0.00  0.96  0.00  0.00  0.00  0.08  0.00
  YS02001625YS02001629    1.00   0.04  0.02  0.00  0.93  0.00  0.02  0.00  0.00  0.00
  YS02163301YS02001633    1.00   0.00  0.05  0.00  0.95  0.00  0.00  0.00  0.00  0.00
  YS02163601YS02164001    1.00   0.00  0.03  0.00  0.97  0.00  0.00  0.00  0.00  0.00
  YS02164001YS02001641    1.00   0.01  0.02  0.00  0.97  0.00  0.00  0.00  0.06  0.00
  YS02001641YS02001644    1.00   0.00  0.01  0.00  0.99  0.00  0.00  0.00  0.00  0.00
  YS02001647YS02001649    1.00   0.00  0.05  0.00  0.95  0.00  0.00  0.00  0.01  0.00
  YS02006553YS02006556    1.00   0.01  0.00  0.00  0.99  0.00  0.00  0.00  0.03  0.00
  YS02006556YS02006558    1.00   0.00  0.00  0.00  1.00  0.00  0.00  0.00  0.00  0.00
  YSB6556YSB1171          1.00   0.03  0.01  0.00  0.96  0.00  0.00  0.00  0.00  0.00
  YS02001907YS02006553    1.00   0.00  0.02  0.00  0.98  0.00  0.00  0.00  0.00  0.00
  YS02006558YS02006561    1.00   0.05  0.00  0.00  0.21  0.73  0.00  0.00  0.44  0.00
  YS02001633YS02163601    1.00   0.00  0.01  0.00  0.99  0.00  0.00  0.00  0.16  0.00
  YS02001644YS02001647    1.00   0.00  0.05  0.00  0.95  0.00  0.00  0.00  0.00  0.00
  YS02001745YS02001748    1.00   0.00  0.00  0.00  0.88  0.01  0.00  0.10  0.05  0.00
  YS02001748YS02001751    1.00   0.00  0.00  0.00  0.97  0.03  0.00  0.00  0.15  0.00
  YS02001751YS02001754    1.00   0.00  0.00  0.00  0.94  0.00  0.00  0.06  0.02  0.00
  YS02001754YS02001757    1.00   0.00  0.00  0.00  0.99  0.01  0.00  0.00  0.21  0.00
  YS02001882YS02001884    1.00   0.04  0.00  0.00  0.95  0.00  0.00  0.00  0.00  0.00
  YS02001884YS02001887    1.00   0.03  0.01  0.00  0.96  0.00  0.00  0.00  0.00  0.00
  YS02001890YS02001895    1.00   0.00  0.04  0.00  0.95  0.00  0.00  0.00  0.00  0.00
  YS02001895YS02001898    1.00   0.05  0.00  0.00  0.94  0.00  0.01  0.00  0.00  0.00
  YS02001898YS02001901    1.00   0.05  0.00  0.00  0.95  0.00  0.00  0.00  0.03  0.00
  YS02001901YS02001904    1.00   0.05  0.00  0.00  0.95  0.00  0.00  0.00  0.00  0.00
  YS02001904YS02001907    1.00   0.00  0.05  0.00  0.95  0.00  0.00  0.00  0.00  0.00
  YS02001887YS02001890    1.00   0.00  0.00  0.00  0.98  0.00  0.02  0.00  0.00  0.00
  YS02001652YS02001649    1.00   0.00  0.00  0.00  1.00  0.00  0.00  0.00  0.19  0.00
  YS02001655YS02001652    1.00   0.00  0.00  0.00  0.94  0.00  0.00  0.06  0.02  0.00
  YS02001658YS02001655    1.00   0.00  0.04  0.00  0.93  0.03  0.00  0.00  0.13  0.00
  YS02001661YS02001658    1.00   0.04  0.00  0.00  0.88  0.08  0.00  0.00  0.08  0.00
  YS02001664YS02001661    1.00   0.04  0.00  0.00  0.86  0.10  0.00  0.00  0.23  0.00
  YSB1154YSB6556          1.00   0.04  0.00  0.00  0.96  0.00  0.00  0.00  0.02  0.00
  YSB1174YSB1171          1.00   0.03  0.01  0.00  0.97  0.00  0.00  0.00  0.00  0.00
  YSB1171HS02004479       1.00   0.02  0.00  0.00  0.97  0.00  0.00  0.00  0.11  0.00
  HS02004881HS02006253    1.00   0.03  0.00  0.00  0.91  0.00  0.00  0.06  0.72  0.00
  YS02001793JiankangQianchi    1.00   0.00  0.00  0.00  0.49  0.51  0.00  0.00  0.10  0.00
  YS02001757CaochengTiaoxuchi    1.00   0.00  0.07  0.00  0.88  0.05  0.00  0.00  0.00  0.00
  WSF200WS02003060        1.00   0.00  0.03  0.00  0.80  0.18  0.00  0.00  0.26  0.00
  1                       1.00   0.00  0.00  0.00  0.00  1.00  0.00  0.00  0.34  0.00
  2                       1.00   0.31  0.00  0.00  0.00  0.69  0.00  0.00  0.08  0.00
  3                       1.00   0.04  0.00  0.00  0.00  0.96  0.00  0.00  0.23  0.00
  4                       1.00   1.00  0.00  0.00  0.00  0.00  0.00  0.00  0.00  0.00
  
  
  *************************
  Conduit Surcharge Summary
  *************************
  
  ----------------------------------------------------------------------------
                                                           Hours        Hours 
                         --------- Hours Full --------   Above Full   Capacity
  Conduit                Both Ends  Upstream  Dnstream   Normal Flow   Limited
  ----------------------------------------------------------------------------
  WS02006229WS02006228        3.94      4.21      3.94      5.68         3.94
  WS02006256WS02006235        6.04      6.05      7.83      2.05         0.01
  WS02006253WS02006251        0.22      0.22      0.55      0.01         0.01
  WS02006252WS02006251        3.14      3.14      4.28      3.99         0.01
  WS02006251WS02006249        0.02      0.28      0.02      3.30         0.02
  WS02006249WS02006248        0.01      0.01      0.02      5.59         0.01
  WS02006248WS02006247        0.03      0.03      0.42      0.01         0.01
  WS02006247WS02006245        0.33      0.59      0.33      5.66         0.33
  WS02006245WS02006243        0.55      0.55      0.87      0.01         0.01
  WS02006243WS02006242        0.96      0.96      3.41      0.01         0.01
  WS02006242WS02006240        1.34      1.34      3.86      3.82         0.01
  WS02006240WS02006239        1.79      1.79      2.12      0.05         0.01
  WS02006239WS02006238        3.74      3.74      3.88      0.25         0.21
  WS02006238WS02006235        3.73      3.73      4.21      0.01         0.01
  WS02006235WS02006234        1.39      1.39      3.37      6.07         0.01
  WS02006234WS02006232        1.87      1.87      4.32      0.01         0.01
  WS02006232WS02006231        0.93      0.93      4.32      0.01         0.01
  WS02006231WS02006230        0.81      0.81      0.97      6.06         0.01
  WS02006230WS02006229        5.18      5.58      5.18      6.16         5.18
  WS02006228WS02006109        4.08      4.86      4.08      5.88         4.08
  WS02006116WS02004401        0.30      0.30      0.32      0.22         0.23
  WS02006115WS02006116        0.14      0.14      0.14      0.07         0.08
  WS02006112WS02006115        0.11      0.11      1.31      0.01         0.01
  WS02006111WS02006112        0.01      0.01      5.67      0.01         0.01
  WS02006110WS02006113        0.01      0.01      4.47      0.01         0.01
  WS02006109WS02006110        1.13      1.13      4.86      1.14         0.01
  WS02004411WS02004412        0.01      0.01      0.01      0.28         0.01
  WS02004401WS02004402        0.32      0.32      0.38      0.01         0.01
  WS02004410WS02004411        0.01      0.01      0.01      0.20         0.01
  WS02004409WS02004410        0.01      0.01      0.01      0.09         0.01
  WS02004406WS02004407        0.01      0.01      0.66      0.01         0.01
  WS02004405WS02004406        0.66      0.75      0.66      1.22         0.66
  WS02004404WS02004405        0.75      0.83      0.75      5.90         0.75
  WS02004403WS02004404        0.40      0.40      0.83      0.01         0.01
  WS02004402WS02004403        0.38      0.38      0.40      0.29         0.30
  WS02003072WS02003073        0.01      0.01      0.01      5.72         0.01
  HS02004876HS02004881        0.01      0.01      0.01      0.17         0.01
  HS02004785HS02004788        0.01      0.01      0.01      0.10         0.01
  HS02004480HS02004478        0.01      0.01      0.01      0.52         0.01
  YS02001759YS02001757        5.54      5.54      5.62      0.01         0.01
  YS02001762YS02001759        5.51      5.51      5.54      0.01         0.01
  YS02001765YS02001762        5.49      5.49      5.51      0.01         0.01
  YS02001770YS02001767        5.46      5.47      5.47      0.34         0.86
  YS02001774YS02001770        5.45      5.45      5.50      0.01         0.01
  YS02001779YS02001774        5.26      5.26      5.50      0.01         0.01
  YS02001649YS02001757        5.52      5.52      5.62      0.01         0.01
  YS02001767YS02001765        5.47      5.47      5.49      0.01         0.01
  YS02006561YS02001783        0.90      0.90      1.40      0.01         0.01
  YS02001783YS02001784        1.40      1.40      1.47      1.35         1.20
  YS02001784YS02001785        1.41      1.47      1.41      2.22         1.41
  YS02001788YS02001790        1.40      1.40      2.07      0.01         0.01
  YS02001790YS02001791        2.07      2.07      2.10      0.75         0.74
  YS02001791YS02001793        2.10      2.10      2.20      0.01         0.01
  YS02001910YS02001907        1.20      1.20      1.67      0.01         0.01
  YS02001786YS02001788        1.40      1.41      1.40      1.83         1.39
  YS02001915YS02001910        1.01      1.01      1.20      0.01         0.01
  YS02001918YS02001915        0.78      0.78      1.01      0.01         0.01
  YS02001923YS02001920        0.60      0.60      0.82      0.01         0.01
  YS02001926YS02001923        0.01      0.01      0.01      0.01         0.01
  YS02001929YS02001926        0.01      0.01      0.01      0.01         0.01
  YS02001920YS02001918        0.78      0.78      0.82      0.01         0.01
  YS02001629YS02163301        5.45      5.45      5.46      0.01         0.01
  YS02001619YS02001622        5.11      5.11      5.13      0.01         0.01
  YS02001622YS02001625        5.13      5.13      5.32      0.01         0.01
  YS02001625YS02001629        5.12      5.12      5.32      0.01         0.01
  YS02163301YS02001633        5.46      5.46      5.49      0.01         0.01
  YS02163601YS02164001        5.49      5.49      5.52      0.01         0.01
  YS02164001YS02001641        5.49      5.49      5.50      0.01         0.02
  YS02001641YS02001644        5.50      5.50      5.50      1.48         1.55
  YS02001647YS02001649        5.28      5.28      5.52      0.01         0.01
  YS02006553YS02006556        1.41      1.41      1.73      0.01         0.01
  YS02006556YS02006558        1.55      1.55      1.79      0.01         0.01
  YS02001907YS02006553        2.24      2.24      2.45      0.01         0.01
  YS02006558YS02006561        1.11      1.37      1.11      2.09         1.11
  YS02001633YS02163601        5.48      5.48      5.52      0.01         0.01
  YS02001644YS02001647        5.28      5.28      5.50      0.01         0.01
  YS02001745YS02001748        0.01      0.01      5.00      0.01         0.01
  YS02001748YS02001751        5.02      5.02      5.10      0.01         0.01
  YS02001751YS02001754        5.10      5.10      5.27      0.01         0.01
  YS02001754YS02001757        5.28      5.28      5.62      0.01         0.01
  YS02001882YS02001884        1.02      1.02      1.05      0.01         0.01
  YS02001884YS02001887        1.11      1.11      1.13      0.01         0.01
  YS02001890YS02001895        1.00      1.00      1.22      0.01         0.01
  YS02001895YS02001898        0.98      0.98      1.00      0.01         0.01
  YS02001898YS02001901        1.00      1.00      1.10      0.01         0.01
  YS02001901YS02001904        1.08      1.08      1.10      0.01         0.01
  YS02001904YS02001907        1.08      1.08      1.75      0.01         0.01
  YS02001887YS02001890        1.16      1.16      1.18      0.07         0.01
  YS02001652YS02001649        5.29      5.29      5.52      0.01         0.02
  YS02001655YS02001652        5.11      5.11      5.27      0.01         0.01
  YS02001658YS02001655        5.02      5.02      5.11      0.01         0.01
  YS02001661YS02001658        0.23      0.23      5.02      0.01         0.01
  YS02001664YS02001661        0.01      0.01      1.14      0.01         0.01
  YS02001793JiankangQianchi        2.17      2.17      2.88      0.01         0.01
  YS02001757CaochengTiaoxuchi        4.79      4.79      5.62      0.01         0.01
  
  
  ***************
  Pumping Summary
  ***************
  
  ---------------------------------------------------------------------------------------------------------
                                                  Min       Avg       Max     Total     Power    % Time Off
                        Percent   Number of      Flow      Flow      Flow    Volume     Usage    Pump Curve
  Pump                 Utilized   Start-Ups       LPS       LPS       LPS  10^6 ltr     Kw-hr    Low   High
  ---------------------------------------------------------------------------------------------------------
  CC-Pump-1               72.28           3      0.00    168.09    200.00     3.442      5.85    0.0   11.6
  CC-Pump-2               70.21           2      0.00    166.03    200.00     3.300      5.41    0.0    9.0
  JK-Pump-1               91.49           3      0.00    180.57    300.00     3.577     47.23    0.0    0.0
  JK-Pump-2               95.74           1      0.00    190.54    300.00     3.993     49.41    0.0    0.0
  XR-Pump-1               97.87           4      0.00     76.06     95.00     2.166     22.72    0.0    0.0
  XR-Pump-2               87.21           8      0.00     72.75     95.00     1.738     19.91    0.0    0.0
  XR-Pump-3               93.60           4      0.00     83.59     95.00     2.166     21.74    0.0    0.0
  XR-Pump-4               97.86           7      0.00     72.49     95.00     2.052     21.83    0.0    0.0
  

  Analysis begun on:  Fri Jan  7 11:35:39 2022
  Analysis ended on:  Fri Jan  7 11:35:43 2022
  Total elapsed time: 00:00:04