
  EPA STORM WATER MANAGEMENT MODEL - VERSION 5.1 (Build 5.3.0.dev0)
  --------------------------------------------------------------

  WARNING 04: minimum elevation drop used for Conduit WS02004404WS02004405
  WARNING 03: negative offset ignored for Link YS02001904YS02001907
  
  *********************************************************
  NOTE: The summary statistics displayed in this report are
  based on results found at every computational time step,  
  not just on results from each reporting time step.
  *********************************************************
  
  ****************
  Analysis Options
  ****************
  Flow Units ............... LPS
  Process Models:
    Rainfall/Runoff ........ YES
    RDII ................... NO
    Snowmelt ............... NO
    Groundwater ............ NO
    Flow Routing ........... YES
    Ponding Allowed ........ NO
    Water Quality .......... NO
  Infiltration Method ...... HORTON
  Flow Routing Method ...... DYNWAVE
  Surcharge Method ......... EXTRAN
  Starting Date ............ 08/28/2015 08:00:00
  Ending Date .............. 08/28/2015 15:50:00
  Antecedent Dry Days ...... 8.0
  Report Time Step ......... 00:01:00
  Wet Time Step ............ 00:01:00
  Dry Time Step ............ 00:01:00
  Routing Time Step ........ 5.00 sec
  Variable Time Step ....... YES
  Maximum Trials ........... 8
  Number of Threads ........ 4
  Head Tolerance ........... 0.001500 m
  
  
  **************************        Volume         Depth
  Runoff Quantity Continuity     hectare-m            mm
  **************************     ---------       -------
  Total Precipitation ......         6.144        13.452
  Evaporation Loss .........         0.000         0.000
  Infiltration Loss ........         1.572         3.442
  Surface Runoff ...........         3.480         7.619
  Final Storage ............         1.093         2.393
  Continuity Error (%) .....        -0.016
  
  
  **************************        Volume        Volume
  Flow Routing Continuity        hectare-m      10^6 ltr
  **************************     ---------     ---------
  Dry Weather Inflow .......         0.616         6.165
  Wet Weather Inflow .......         3.479        34.789
  Groundwater Inflow .......         0.000         0.000
  RDII Inflow ..............         0.000         0.000
  External Inflow ..........         0.102         1.024
  External Outflow .........         2.464        24.635
  Flooding Loss ............         1.363        13.632
  Evaporation Loss .........         0.000         0.000
  Exfiltration Loss ........         0.000         0.000
  Initial Stored Volume ....         0.076         0.761
  Final Stored Volume ......         0.617         6.168
  Continuity Error (%) .....        -3.971
  
  
  *************************
  Highest Continuity Errors
  *************************
  Node JK-storage (-17.68%)
  Node HS02004842 (15.27%)
  Node YS02001884 (10.32%)
  Node YSB1171 (2.79%)
  Node HS02004817 (2.78%)
  
  
  ***************************
  Time-Step Critical Elements
  ***************************
  Link 3 (65.61%)
  Link WS02006252WS02006251 (25.87%)
  Link WS02006238WS02006235 (1.83%)
  Link WS02006280WS02006229 (1.35%)
  
  
  ********************************
  Highest Flow Instability Indexes
  ********************************
  Link YS02163601YS02164001 (36)
  Link YS02163301YS02001633 (36)
  Link YS02001629YS02163301 (36)
  Link YS02001619YS02001622 (34)
  Link YS02164001YS02001641 (33)
  
  
  *************************
  Routing Time Step Summary
  *************************
  Minimum Time Step           :     0.07 sec
  Average Time Step           :     0.75 sec
  Maximum Time Step           :     5.00 sec
  Percent in Steady State     :    -0.00
  Average Iterations per Step :     4.37
  Percent Not Converging      :    18.50
  
  
  ***************************
  Subcatchment Runoff Summary
  ***************************
  
  ------------------------------------------------------------------------------------------------------------------------------
                            Total      Total      Total      Total     Imperv       Perv      Total       Total     Peak  Runoff
                           Precip      Runon       Evap      Infil     Runoff     Runoff     Runoff      Runoff   Runoff   Coeff
  Subcatchment                 mm         mm         mm         mm         mm         mm         mm    10^6 ltr      LPS
  ------------------------------------------------------------------------------------------------------------------------------
  sub0                      13.45       0.00       0.00       0.89      11.25       0.05      11.30        0.01     3.67   0.840
  sub1                      13.45       0.00       0.00       1.45      10.71       0.03      10.74        0.07    24.31   0.799
  sub2                      13.45       0.00       0.00       4.95       7.56       0.02       7.58        0.07    22.93   0.564
  sub3                      13.45       0.00       0.00       4.96       7.52       0.02       7.54        0.17    51.30   0.560
  sub4                      13.45       0.00       0.00       1.46      10.54       0.02      10.56        0.22    61.94   0.785
  sub5                      13.45       0.00       0.00       0.91      11.19       0.03      11.22        0.13    43.21   0.834
  sub7                      13.45       0.00       0.00       1.17      10.98       0.04      11.03        0.04    13.69   0.820
  sub8                      13.45       0.00       0.00       1.17      10.97       0.04      11.01        0.07    25.15   0.819
  sub9                      13.45       0.00       0.00       1.17      10.97       0.04      11.01        0.05    18.81   0.818
  sub10                     13.45       0.00       0.00       1.04      11.08       0.03      11.11        0.12    42.29   0.826
  sub11                     13.45       0.00       0.00       1.04      11.10       0.04      11.14        0.13    46.68   0.828
  sub12                     13.45       0.00       0.00       1.69      10.51       0.06      10.58        0.09    35.94   0.786
  sub14                     13.45       0.00       0.00       1.17      10.97       0.04      11.01        0.10    37.02   0.818
  sub15                     13.45       0.00       0.00       4.00       8.43       0.04       8.47        0.15    51.03   0.630
  sub16                     13.45       0.00       0.00       4.38       8.09       0.06       8.15        0.09    32.58   0.606
  sub17                     13.45       0.00       0.00       4.25       8.21       0.06       8.27        0.07    26.73   0.615
  sub22                     13.45       0.00       0.00       5.74       6.88       0.04       6.92        0.44   159.06   0.514
  sub23                     13.45       0.00       0.00       4.93       7.60       0.05       7.65        0.36   133.95   0.569
  sub60                     13.45       0.00       0.00       1.61       8.73       0.00       8.74        2.65   387.96   0.649
  sub61                     13.45       0.00       0.00       2.28       8.88       0.00       8.88        2.74   483.52   0.660
  sub62                     13.45       0.00       0.00       1.07       9.65       0.00       9.66        2.97   496.42   0.718
  sub63                     13.45       0.00       0.00       3.90       7.77       0.00       7.77        2.35   446.68   0.578
  sub64                     13.45       0.00       0.00       2.01       8.38       0.00       8.38        2.55   368.35   0.623
  sub65                     13.45       0.00       0.00       1.75       8.52       0.00       8.52        2.62   373.60   0.634
  sub66                     13.45       0.00       0.00       3.90       7.19       0.00       7.19        2.21   337.96   0.535
  sub67                     13.45       0.00       0.00       1.07      10.19       0.01      10.19        3.15   622.58   0.758
  sub68                     13.45       0.00       0.00       1.88       9.34       0.01       9.34        2.87   531.38   0.694
  sub69                     13.45       0.00       0.00       2.01       9.68       0.01       9.69        2.26   503.32   0.720
  sub70                     13.45       9.89       0.00       7.67      12.93       0.26      13.20        3.02   423.72   0.565
  sub71                     13.45       0.00       0.00       1.07       9.40       0.00       9.40        2.22   347.35   0.699
  sub72                     13.45       0.00       0.00       0.94       7.49       0.00       7.50        1.53   163.23   0.557
  sub73                     13.45      12.84       0.00       8.67      14.26       0.27      14.53        3.41   375.92   0.552
  sub74                     13.45       0.00       0.00      10.09       2.88       0.00       2.89        1.15   273.25   0.215
  
  
  ******************
  Node Depth Summary
  ******************
  
  ---------------------------------------------------------------------------------
                                 Average  Maximum  Maximum  Time of Max    Reported
                                   Depth    Depth      HGL   Occurrence   Max Depth
  Node                 Type       Meters   Meters   Meters  days hr:min      Meters
  ---------------------------------------------------------------------------------
  WS02001211           JUNCTION     0.70     0.79     5.63     0  02:21        0.79
  WS02001212           JUNCTION     0.42     0.50     5.57     0  02:21        0.50
  WS02001213           JUNCTION     0.66     0.76     5.52     0  02:22        0.76
  WS02003069           JUNCTION     0.48     0.60     5.19     0  03:12        0.60
  WS02003072           JUNCTION     0.55     0.66     5.03     0  03:12        0.66
  WS02003073           JUNCTION     0.33     0.41     4.47     0  03:13        0.41
  WS02003060           JUNCTION     0.43     0.53     5.47     0  03:11        0.53
  WS02003066           JUNCTION     0.25     0.35     5.91     0  03:05        0.35
  WS02003059           JUNCTION     0.72     0.81     5.50     0  02:22        0.81
  WS02003067           JUNCTION     0.61     0.78     6.10     0  03:04        0.78
  WS02004401           JUNCTION     0.73     1.10     7.10     0  03:03        1.10
  WS02004402           JUNCTION     0.76     1.11     7.07     0  03:03        1.11
  WS02004403           JUNCTION     0.78     1.10     7.03     0  03:03        1.10
  WS02004404           JUNCTION     0.85     1.15     7.00     0  03:03        1.15
  WS02004406           JUNCTION     0.85     1.10     6.93     0  03:03        1.10
  WS02004409           JUNCTION     0.55     0.85     6.62     0  03:04        0.85
  WS02004410           JUNCTION     0.56     0.85     6.57     0  03:04        0.85
  WS02004411           JUNCTION     0.58     0.84     6.52     0  03:04        0.84
  WS02004412           JUNCTION     0.59     0.83     6.47     0  03:04        0.83
  WS02004413           JUNCTION     0.75     0.97     6.44     0  03:04        0.97
  WS02004405           JUNCTION     0.85     1.13     6.98     0  03:03        1.13
  WS02006109           JUNCTION     0.82     1.25     7.87     0  03:02        1.24
  WS02006110           JUNCTION     0.80     1.10     7.69     0  03:02        1.10
  WS02006111           JUNCTION     0.25     0.59     7.30     0  03:03        0.59
  WS02006112           JUNCTION     0.91     1.37     7.26     0  03:02        1.37
  WS02006113           JUNCTION     0.38     0.60     7.50     0  03:02        0.60
  WS02006115           JUNCTION     0.63     1.05     7.19     0  03:03        1.05
  WS02006116           JUNCTION     0.71     1.11     7.15     0  03:03        1.11
  WS02006230           JUNCTION     0.82     1.37     8.12     0  03:02        1.37
  WS02006231           JUNCTION     0.56     1.01     8.13     0  03:02        1.00
  WS02006232           JUNCTION     0.70     1.10     8.14     0  03:01        1.09
  WS02006234           JUNCTION     0.63     0.99     8.15     0  03:02        0.98
  WS02006235           JUNCTION     0.66     1.00     8.16     0  03:01        0.98
  WS02006238           JUNCTION     0.68     1.02     8.16     0  03:01        1.01
  WS02006240           JUNCTION     0.59     0.88     8.18     0  03:02        0.88
  WS02006242           JUNCTION     0.64     0.93     8.20     0  03:02        0.92
  WS02006243           JUNCTION     0.53     0.79     8.21     0  03:02        0.79
  WS02006245           JUNCTION     0.50     0.74     8.22     0  03:02        0.74
  WS02006247           JUNCTION     0.51     0.73     8.23     0  03:03        0.73
  WS02006248           JUNCTION     0.46     0.66     8.24     0  02:40        0.66
  WS02006249           JUNCTION     0.48     0.66     8.26     0  02:40        0.66
  WS02006239           JUNCTION     0.64     0.96     8.17     0  03:01        0.96
  WS02006251           JUNCTION     0.48     0.71     8.38     0  02:40        0.71
  WS02006252           JUNCTION     0.42     0.59     8.84     0  04:42        0.59
  WS02006253           JUNCTION     0.50     0.74     8.38     0  02:40        0.73
  WS02006256           JUNCTION     1.11     1.23     8.16     0  03:00        1.23
  WS02004138           JUNCTION     0.16     0.19     7.44     0  07:18        0.19
  WS02004407           JUNCTION     0.25     0.36     6.68     0  03:03        0.36
  WS02006228           JUNCTION     0.84     1.37     8.02     0  03:02        1.36
  WS02006229           JUNCTION     0.82     1.41     8.10     0  03:02        1.41
  WS02006280           JUNCTION     0.08     0.24     8.52     0  03:02        0.24
  WS02006284           JUNCTION     0.38     0.63     9.02     0  03:02        0.62
  WS02006287           JUNCTION     0.11     0.37     9.32     0  03:02        0.37
  WSF200               JUNCTION     0.25     0.38     5.61     0  03:06        0.38
  HS02004901           JUNCTION     0.14     0.35    10.17     0  03:01        0.35
  HS02004881           JUNCTION     0.01     0.05     9.08     0  03:01        0.05
  HS02004876           JUNCTION     0.05     0.15     9.18     0  03:01        0.15
  HS02004870           JUNCTION     0.02     0.09     9.37     0  03:01        0.09
  HS02004862           JUNCTION     0.02     0.10     9.49     0  03:01        0.10
  HS02004856           JUNCTION     0.08     0.15     9.57     0  03:01        0.15
  HS02004852           JUNCTION     0.01     0.07     9.58     0  03:02        0.07
  HS02004848           JUNCTION     0.01     0.06     9.67     0  03:01        0.06
  HS02004842           JUNCTION     0.33     0.40     9.67     0  03:01        0.40
  HS02004837           JUNCTION     0.03     0.09     9.67     0  03:01        0.09
  HS02004830           JUNCTION     0.04     0.10     9.57     0  03:01        0.10
  HS02004824           JUNCTION     0.03     0.11     9.51     0  03:02        0.11
  HS02004817           JUNCTION     0.45     0.67     9.52     0  03:02        0.67
  HS02004807           JUNCTION     0.14     0.34     9.51     0  03:02        0.34
  HS02004802           JUNCTION     0.17     0.38     9.50     0  03:02        0.38
  HS02004799           JUNCTION     0.13     0.43     9.65     0  03:01        0.43
  HS02004792           JUNCTION     0.04     0.20     9.72     0  03:01        0.19
  HS02004788           JUNCTION     0.03     0.14    10.04     0  03:02        0.14
  HS02004785           JUNCTION     0.05     0.23    10.13     0  03:02        0.23
  HS02004777           JUNCTION     0.16     0.37    10.17     0  03:01        0.37
  HS02004770           JUNCTION     0.13     0.34    10.17     0  03:01        0.34
  HS02004480           JUNCTION     0.09     0.35     9.59     0  03:01        0.35
  HS02004479           JUNCTION     0.13     0.39     9.60     0  03:01        0.39
  HS02004478           JUNCTION     0.07     0.26     9.48     0  03:01        0.26
  YS02001745           JUNCTION     0.69     0.89     8.41     0  03:29        0.89
  YS02001748           JUNCTION     1.07     2.06     9.14     0  02:48        1.32
  YS02001751           JUNCTION     1.26     1.93     8.80     0  02:49        1.53
  YS02001754           JUNCTION     1.51     2.00     8.60     0  02:49        1.81
  YS02001762           JUNCTION     1.71     2.03     8.43     0  03:10        2.03
  YS02001765           JUNCTION     1.66     1.98     8.43     0  03:10        1.97
  YS02001767           JUNCTION     1.63     1.94     8.43     0  03:30        1.93
  YS02001770           JUNCTION     1.62     1.92     8.42     0  02:49        1.91
  YS02001774           JUNCTION     1.69     1.98     8.41     0  02:49        1.97
  YS02001779           JUNCTION     1.44     1.68     8.37     0  02:48        1.68
  YS02001882           JUNCTION     0.59     1.65     8.37     0  02:51        1.62
  YS02001884           JUNCTION     0.69     1.74     8.36     0  02:51        1.73
  YS02001759           JUNCTION     1.74     2.08     8.45     0  03:10        2.07
  YS02001887           JUNCTION     0.76     1.81     8.35     0  02:59        1.80
  YS02001890           JUNCTION     0.79     1.81     8.32     0  02:51        1.81
  YS02001898           JUNCTION     0.56     1.57     8.31     0  02:51        1.56
  YS02001901           JUNCTION     0.68     1.68     8.29     0  02:51        1.67
  YS02001904           JUNCTION     0.65     1.64     8.27     0  02:51        1.63
  YS02001907           JUNCTION     0.98     1.96     8.25     0  02:51        1.96
  YS02001910           JUNCTION     0.77     1.79     8.30     0  02:52        1.79
  YS02001915           JUNCTION     0.57     1.62     8.34     0  02:52        1.61
  YS02001918           JUNCTION     0.32     1.33     8.40     0  02:52        1.32
  YS02001619           JUNCTION     1.23     1.53     8.46     0  02:44        1.48
  YS02001629           JUNCTION     1.58     1.85     8.40     0  02:45        1.84
  YS02001641           JUNCTION     1.68     1.96     8.40     0  02:46        1.93
  YS02001644           JUNCTION     1.68     1.92     8.35     0  02:49        1.92
  YS02001652           JUNCTION     1.52     2.16     8.76     0  02:56        2.01
  YS02001655           JUNCTION     1.29     2.20     9.05     0  03:02        1.94
  YS02001920           JUNCTION     0.41     1.42     8.43     0  02:52        1.41
  YS02001923           JUNCTION     0.25     1.20     8.46     0  02:52        1.19
  YS02001926           JUNCTION     0.30     1.05     8.50     0  02:52        0.97
  YS02001929           JUNCTION     0.17     0.76     8.45     0  02:52        0.73
  YS02001658           JUNCTION     1.02     2.30     9.44     0  02:58        1.82
  YS02001661           JUNCTION     0.80     2.46     9.86     0  02:58        1.72
  YS02001664           JUNCTION     0.35     0.57     8.49     0  04:32        0.56
  YS02001622           JUNCTION     1.25     1.54     8.44     0  02:44        1.50
  YS02001633           JUNCTION     1.67     2.00     8.45     0  02:46        1.94
  YS02001649           JUNCTION     1.72     2.05     8.44     0  02:56        2.05
  YS02001757           JUNCTION     1.84     2.18     8.44     0  03:31        2.16
  YS02001895           JUNCTION     0.55     1.57     8.32     0  02:51        1.56
  YS02001625           JUNCTION     1.53     1.78     8.38     0  02:44        1.78
  YS02163301           JUNCTION     1.61     1.92     8.44     0  02:46        1.88
  YS02163601           JUNCTION     1.72     2.04     8.44     0  02:46        1.99
  YS02164001           JUNCTION     1.66     1.97     8.43     0  02:46        1.91
  YS02001647           JUNCTION     1.51     1.81     8.42     0  03:10        1.79
  YSB1154              JUNCTION     0.27     0.54     9.60     0  03:01        0.54
  YSB6556              JUNCTION     0.16     0.43     9.60     0  03:02        0.43
  YSB1174              JUNCTION     0.22     0.49     9.60     0  03:01        0.49
  YSB1171              JUNCTION     0.42     0.69     9.60     0  03:01        0.69
  YS02006553           JUNCTION     0.98     1.97     8.25     0  03:00        1.96
  YS02006561           JUNCTION     0.35     1.12     7.78     0  02:51        1.08
  YS02006556           JUNCTION     0.95     1.93     8.24     0  03:00        1.93
  YS02006558           JUNCTION     0.99     1.97     8.24     0  03:00        1.97
  YS02001783           JUNCTION     0.57     1.73     7.87     0  02:44        1.47
  YS02001784           JUNCTION     0.59     1.71     7.78     0  02:44        1.41
  YS02001786           JUNCTION     0.52     2.23     8.26     0  02:44        1.26
  YS02001788           JUNCTION     0.45     2.28     8.26     0  02:44        1.12
  YS02001790           JUNCTION     0.55     1.96     7.60     0  02:44        1.29
  YS02001791           JUNCTION     0.51     1.61     7.08     0  02:44        1.27
  YS02001793           JUNCTION     0.67     1.94     6.78     0  02:44        1.80
  WS02004139           JUNCTION     0.64     0.73     5.64     0  02:20        0.73
  WSC                  OUTFALL      0.33     0.41     1.08     0  03:13        0.41
  3                    OUTFALL      0.14     0.22     6.22     0  03:00        0.22
  4                    OUTFALL      0.05     0.16     7.16     0  02:40        0.16
  5                    OUTFALL      0.00     0.00     5.00     0  00:00        0.00
  JK-storage           STORAGE      2.31     5.80     6.60     0  02:45        5.80
  CC-storage           STORAGE      1.06     1.39     8.39     0  03:29        1.39
  XR-storage           STORAGE      6.12     7.72     5.72     0  03:06        7.72
  
  
  *******************
  Node Inflow Summary
  *******************
  
  -------------------------------------------------------------------------------------------------
                                  Maximum  Maximum                  Lateral       Total        Flow
                                  Lateral    Total  Time of Max      Inflow      Inflow     Balance
                                   Inflow   Inflow   Occurrence      Volume      Volume       Error
  Node                 Type           LPS      LPS  days hr:min    10^6 ltr    10^6 ltr     Percent
  -------------------------------------------------------------------------------------------------
  WS02001211           JUNCTION      7.35   388.02     0  07:20       0.207        8.12       0.465
  WS02001212           JUNCTION      0.00   388.52     0  07:20           0        8.09       0.259
  WS02001213           JUNCTION      0.00   389.18     0  07:20           0        8.07       0.300
  WS02003069           JUNCTION      0.32  1001.20     0  03:12     0.00902        17.4       0.195
  WS02003072           JUNCTION      0.00  1000.95     0  03:12           0        17.3       0.233
  WS02003073           JUNCTION      1.82  1002.80     0  03:12      0.0514        17.3       0.268
  WS02003060           JUNCTION     16.53  1001.45     0  03:11       0.466        17.4       0.185
  WS02003066           JUNCTION      0.00   796.66     0  03:05           0        8.93       0.057
  WS02003059           JUNCTION      0.00   390.37     0  07:21           0        8.04       0.504
  WS02003067           JUNCTION      0.00   796.22     0  03:05           0        8.94       0.116
  WS02004401           JUNCTION      0.00   799.64     0  03:03           0         9.2       0.265
  WS02004402           JUNCTION      0.00   799.71     0  03:03           0        9.18       0.246
  WS02004403           JUNCTION      0.00   799.76     0  03:03           0        9.15       0.221
  WS02004404           JUNCTION      0.16   799.97     0  03:03     0.00457        9.14       0.164
  WS02004406           JUNCTION      0.00   800.04     0  03:03           0         9.1       0.398
  WS02004409           JUNCTION      0.00   799.81     0  03:03           0        9.06       0.218
  WS02004410           JUNCTION      0.00   798.17     0  03:04           0        9.04       0.241
  WS02004411           JUNCTION      0.00   797.09     0  03:04           0        9.02       0.243
  WS02004412           JUNCTION      0.00   796.43     0  03:04           0           9       0.258
  WS02004413           JUNCTION      0.00   796.18     0  03:04           0        8.97       0.373
  WS02004405           JUNCTION      0.04   800.02     0  03:03     0.00107        9.13       0.244
  WS02006109           JUNCTION      1.23   783.47     0  03:02      0.0347        9.27       0.245
  WS02006110           JUNCTION      0.00   783.38     0  03:02           0        9.25       0.237
  WS02006111           JUNCTION      0.00   780.87     0  03:02           0        9.21       0.058
  WS02006112           JUNCTION     26.73   799.19     0  03:03      0.0709        9.28       0.346
  WS02006113           JUNCTION      0.00   783.39     0  03:02           0        9.23       0.128
  WS02006115           JUNCTION      0.00   799.22     0  03:03           0        9.25       0.258
  WS02006116           JUNCTION      0.00   799.48     0  03:03           0        9.22       0.242
  WS02006230           JUNCTION     10.28   402.50     0  05:00        0.29        7.18       0.208
  WS02006231           JUNCTION      0.00   392.20     0  05:00           0        6.91       0.231
  WS02006232           JUNCTION      0.00   392.20     0  05:00           0        6.93       0.257
  WS02006234           JUNCTION      0.00   392.19     0  05:00           0        6.94       0.154
  WS02006235           JUNCTION      0.00   392.19     0  05:00           0        6.99       0.176
  WS02006238           JUNCTION      0.00   343.32     0  04:30           0           5       0.184
  WS02006240           JUNCTION      0.00   339.02     0  04:30           0           5       0.321
  WS02006242           JUNCTION      0.00   335.67     0  04:30           0           5       0.377
  WS02006243           JUNCTION      0.00   337.72     0  02:10           0           5       0.133
  WS02006245           JUNCTION      0.00   344.42     0  02:09           0        5.02       0.284
  WS02006247           JUNCTION      0.00   351.76     0  02:09           0        5.03       0.212
  WS02006248           JUNCTION      0.00   357.63     0  02:09           0        5.03       0.151
  WS02006249           JUNCTION      0.00   470.53     0  03:10           0        6.29       0.240
  WS02006239           JUNCTION      0.00   342.37     0  04:30           0           5       0.302
  WS02006251           JUNCTION      0.08   470.90     0  03:10     0.00217        6.33       0.225
  WS02006252           JUNCTION      0.00   400.00     0  02:30           0         5.9       0.009
  WS02006253           JUNCTION      3.67   134.78     0  03:01     0.00915       0.435       1.961
  WS02006256           JUNCTION      0.00   600.00     0  03:20           0        8.13       0.040
  WS02004138           JUNCTION      0.00   380.00     0  02:10           0        7.95       0.057
  WS02004407           JUNCTION      0.00   800.05     0  03:03           0        9.07       0.098
  WS02006228           JUNCTION      0.00   782.24     0  03:02           0        9.25       0.174
  WS02006229           JUNCTION      0.00   782.30     0  03:02           0        9.26       0.138
  WS02006280           JUNCTION      0.00   611.95     0  03:02           0         2.1       0.003
  WS02006284           JUNCTION      0.10   611.06     0  03:02      0.0027         2.1       0.059
  WS02006287           JUNCTION      0.00   609.84     0  03:02           0         2.1       0.034
  WSF200               JUNCTION      0.00   796.76     0  03:05           0        8.92       0.060
  HS02004901           JUNCTION     32.58    32.58     0  03:01      0.0854      0.0856       2.107
  HS02004881           JUNCTION     13.69   131.68     0  03:01      0.0372       0.403       0.059
  HS02004876           JUNCTION     24.31   119.37     0  03:01      0.0714       0.367       0.153
  HS02004870           JUNCTION     25.15    96.63     0  03:01      0.0703       0.295       0.038
  HS02004862           JUNCTION     23.13    73.48     0  03:01      0.0763       0.225       0.080
  HS02004856           JUNCTION     18.81    51.88     0  03:01      0.0529        0.15       0.973
  HS02004852           JUNCTION      0.00    35.11     0  03:01           0      0.0975       0.061
  HS02004848           JUNCTION     51.30    51.30     0  03:01        0.17        0.17       0.030
  HS02004842           JUNCTION      0.00    15.11     0  03:01           0      0.0852      18.024
  HS02004837           JUNCTION     48.64    62.30     0  03:01       0.302       0.374       0.218
  HS02004830           JUNCTION      0.15    61.39     0  03:01     0.00423       0.364       0.341
  HS02004824           JUNCTION     61.99   121.76     0  03:01       0.222       0.584       0.093
  HS02004817           JUNCTION      0.60   117.99     0  03:02      0.0169       0.601       2.855
  HS02004807           JUNCTION     46.68   158.06     0  03:01       0.129       0.713       0.602
  HS02004802           JUNCTION      0.00   156.92     0  03:03           0       0.709       0.571
  HS02004799           JUNCTION     37.02   389.10     0  03:01       0.105        1.19       0.208
  HS02004792           JUNCTION    159.34   356.44     0  03:01       0.445        1.08       0.038
  HS02004788           JUNCTION     52.70   202.58     0  03:02       0.193       0.638       0.062
  HS02004785           JUNCTION      0.15   157.28     0  03:01     0.00423       0.447       0.112
  HS02004777           JUNCTION      0.03   160.02     0  03:01    0.000846       0.447       1.175
  HS02004770           JUNCTION    133.95   163.77     0  03:01       0.365       0.449       0.699
  HS02004480           JUNCTION      0.00   456.70     0  03:01           0         1.4       0.083
  HS02004479           JUNCTION      0.00    72.19     0  03:02           0       0.228       0.322
  HS02004478           JUNCTION      0.00   609.31     0  03:02           0         2.1       0.019
  YS02001745           JUNCTION    387.96   387.96     0  03:01        2.65        2.65       0.381
  YS02001748           JUNCTION      0.04   499.38     0  02:48     0.00127        2.64       0.895
  YS02001751           JUNCTION      0.01   397.54     0  03:01     0.00031        2.62       0.914
  YS02001754           JUNCTION      0.26   397.92     0  03:01     0.00733         2.6       0.964
  YS02001762           JUNCTION      0.00   397.66     0  02:55           0        2.03       1.050
  YS02001765           JUNCTION      0.00   397.65     0  02:55           0        2.03       1.208
  YS02001767           JUNCTION      0.54   397.80     0  02:55      0.0151        2.05       1.771
  YS02001770           JUNCTION    496.57   496.57     0  03:01        2.97        3.06       1.048
  YS02001774           JUNCTION      0.00   399.01     0  03:32           0        1.08       2.374
  YS02001779           JUNCTION      0.01   399.28     0  03:32    0.000141        1.05       1.485
  YS02001882           JUNCTION      0.00    49.08     0  02:47           0      0.0258       9.652
  YS02001884           JUNCTION      0.00    57.68     0  02:46           0       0.062      11.511
  YS02001759           JUNCTION    483.56   791.63     0  02:57        2.74        4.65       0.497
  YS02001887           JUNCTION    623.03   623.03     0  03:01        3.16        3.19       0.278
  YS02001890           JUNCTION      0.00   623.38     0  03:01           0        3.14       0.300
  YS02001898           JUNCTION      0.00   516.81     0  03:06           0        3.09       0.119
  YS02001901           JUNCTION      0.00   516.88     0  03:06           0        3.08       0.224
  YS02001904           JUNCTION      0.00   516.79     0  03:06           0        3.08       0.208
  YS02001907           JUNCTION      0.00  1065.37     0  03:02           0        6.88       0.363
  YS02001910           JUNCTION      0.00   552.98     0  02:53           0        3.81       0.321
  YS02001915           JUNCTION    347.37   552.92     0  02:53        2.22        3.86       0.162
  YS02001918           JUNCTION      0.00   290.05     0  02:53           0        1.66       0.109
  YS02001619           JUNCTION    337.96   337.96     0  03:01        2.21        2.21       0.561
  YS02001629           JUNCTION      0.00   234.09     0  02:51           0        1.58       1.855
  YS02001641           JUNCTION      0.00   493.29     0  02:51           0         4.1       0.516
  YS02001644           JUNCTION    368.39  1134.69     0  03:29        2.55        8.29       0.315
  YS02001652           JUNCTION      0.00   482.81     0  03:01           0         2.3       1.011
  YS02001655           JUNCTION      0.15   482.60     0  03:01     0.00434        2.33       1.102
  YS02001920           JUNCTION      2.87   289.85     0  02:53      0.0809        1.65       0.187
  YS02001923           JUNCTION      0.04   274.15     0  02:53     0.00106        1.55       0.050
  YS02001926           JUNCTION      0.05   233.15     0  02:53     0.00147        1.53       0.227
  YS02001929           JUNCTION    163.23   163.23     0  03:01        1.53        1.53       0.039
  YS02001658           JUNCTION      0.00   515.52     0  02:46           0        2.35       1.015
  YS02001661           JUNCTION      0.00   757.81     0  02:57           0        3.08      -0.087
  YS02001664           JUNCTION    446.68   446.68     0  03:01        2.35        3.08       0.179
  YS02001622           JUNCTION      0.00   338.26     0  03:01           0        2.19       1.471
  YS02001633           JUNCTION    373.80   493.37     0  02:51        2.63        4.16       0.777
  YS02001649           JUNCTION      0.00  1040.31     0  02:52           0        4.78       0.783
  YS02001757           JUNCTION      0.00  2023.53     0  02:52           0        10.2       0.917
  YS02001895           JUNCTION      0.00   516.86     0  03:06           0        3.09       0.162
  YS02001625           JUNCTION      0.00   338.01     0  03:01           0        2.16       1.825
  YS02163301           JUNCTION      0.00   234.33     0  02:51           0        1.56       1.560
  YS02163601           JUNCTION      0.11   493.23     0  02:51      0.0031        4.13       0.734
  YS02164001           JUNCTION      0.00   493.43     0  02:51           0         4.1       0.492
  YS02001647           JUNCTION      0.00   750.56     0  02:51           0        3.51       0.819
  YSB1154              JUNCTION     43.21    43.21     0  03:01       0.127       0.128       1.144
  YSB6556              JUNCTION      0.00    41.77     0  03:01           0       0.129       0.980
  YSB1174              JUNCTION     35.94    35.94     0  03:01      0.0924      0.0931       1.403
  YSB1171              JUNCTION      0.00    73.32     0  03:01           0       0.227       2.865
  YS02006553           JUNCTION      0.00   672.00     0  03:32           0        6.13       0.255
  YS02006561           JUNCTION      0.00   969.15     0  03:00           0        8.98       0.008
  YS02006556           JUNCTION      0.00   672.10     0  03:32           0        6.13       0.187
  YS02006558           JUNCTION    532.26   969.44     0  03:00         2.9        9.01       0.061
  YS02001783           JUNCTION      0.00   969.39     0  03:00           0        8.98       0.028
  YS02001784           JUNCTION      1.06   970.18     0  03:00      0.0299           9       0.044
  YS02001786           JUNCTION      0.06   970.26     0  03:01     0.00159           9       0.041
  YS02001788           JUNCTION      0.07   970.23     0  03:00       0.002           9       0.024
  YS02001790           JUNCTION      0.15   970.41     0  03:00     0.00437           9       0.031
  YS02001791           JUNCTION      0.00   970.53     0  03:00           0           9       0.014
  YS02001793           JUNCTION      0.00   970.57     0  03:00           0           9       0.004
  WS02004139           JUNCTION      0.32   380.32     0  07:18     0.00905        7.96       0.483
  WSC                  OUTFALL       0.00  1002.97     0  03:13           0        17.3       0.000
  3                    OUTFALL       0.00   567.89     0  03:00           0         6.1       0.000
  4                    OUTFALL       0.00   227.89     0  02:40           0        1.24       0.000
  5                    OUTFALL       0.00     0.00     0  00:00           0           0       0.000 ltr
  JK-storage           STORAGE       0.00   989.06     0  02:38           0        9.15     -15.026
  CC-storage           STORAGE       0.00  2023.46     0  02:52           0        9.38       0.052
  XR-storage           STORAGE     849.17   849.17     0  03:01        10.2        10.8      -0.001
  
  
  **********************
  Node Surcharge Summary
  **********************
  
  Surcharging occurs when water rises above the top of the highest conduit.
  ---------------------------------------------------------------------
                                               Max. Height   Min. Depth
                                   Hours       Above Crown    Below Rim
  Node                 Type      Surcharged         Meters       Meters
  ---------------------------------------------------------------------
  WS02004401           JUNCTION        0.30          0.103        1.557
  WS02004402           JUNCTION        0.37          0.106        1.634
  WS02004403           JUNCTION        0.40          0.096        1.934
  WS02004404           JUNCTION        0.80          0.149        2.631
  WS02004406           JUNCTION        0.63          0.100        2.350
  WS02004405           JUNCTION        0.69          0.130        2.670
  WS02006109           JUNCTION        3.43          0.434        1.386
  WS02006110           JUNCTION        1.15          0.194        1.656
  WS02006112           JUNCTION        1.19          0.375        1.305
  WS02006115           JUNCTION        0.11          0.045        2.205
  WS02006116           JUNCTION        0.14          0.052        2.238
  WS02006230           JUNCTION        0.70          0.294        1.276
  WS02006231           JUNCTION        1.07          0.299        1.231
  WS02006232           JUNCTION        3.59          0.401        1.079
  WS02006234           JUNCTION        1.14          0.272        0.968
  WS02006235           JUNCTION        3.02          0.286        1.004
  WS02006238           JUNCTION        3.24          0.296        1.134
  WS02006240           JUNCTION        1.19          0.174        1.216
  WS02006242           JUNCTION        2.98          0.200        0.620
  WS02006243           JUNCTION        0.69          0.079        0.691
  WS02006245           JUNCTION        0.24          0.028        0.822
  WS02006247           JUNCTION        0.28          0.022        0.738
  WS02006239           JUNCTION        2.41          0.222        1.068
  WS02006252           JUNCTION        3.45          0.193        0.907
  WS02006228           JUNCTION        3.35          0.544        1.656
  YS02001748           JUNCTION        5.00          0.981        0.209
  YS02001751           JUNCTION        5.10          0.925        0.275
  YS02001754           JUNCTION        5.23          0.946        0.204
  YS02001762           JUNCTION        5.51          1.035        0.115
  YS02001765           JUNCTION        5.48          0.982        0.118
  YS02001767           JUNCTION        5.46          0.937        0.093
  YS02001770           JUNCTION        5.41          0.893        0.027
  YS02001774           JUNCTION        5.50          0.984        0.066
  YS02001779           JUNCTION        5.23          0.680        0.000
  YS02001882           JUNCTION        1.02          0.655        0.175
  YS02001884           JUNCTION        1.05          0.681        0.189
  YS02001759           JUNCTION        5.54          1.081        0.129
  YS02001887           JUNCTION        1.13          0.761        0.189
  YS02001890           JUNCTION        1.16          0.760        0.000
  YS02001898           JUNCTION        0.98          0.545        0.195
  YS02001901           JUNCTION        1.10          0.684        0.186
  YS02001904           JUNCTION        1.08          0.643        0.207
  YS02001907           JUNCTION        1.65          0.950        0.000
  YS02001910           JUNCTION        1.21          0.791        0.309
  YS02001915           JUNCTION        1.01          0.618        0.382
  YS02001918           JUNCTION        0.78          0.332        0.478
  YS02001619           JUNCTION        5.13          0.530        0.080
  YS02001629           JUNCTION        5.12          0.470        0.000
  YS02001641           JUNCTION        5.50          0.962        0.138
  YS02001644           JUNCTION        5.50          0.920        0.000
  YS02001652           JUNCTION        5.26          1.130        0.000
  YS02001655           JUNCTION        5.13          1.200        0.000
  YS02001920           JUNCTION        0.82          0.422        0.718
  YS02001926           JUNCTION        0.01          0.054        0.846
  YS02001658           JUNCTION        5.02          1.300        0.000
  YS02001661           JUNCTION        0.25          1.390        0.000
  YS02001622           JUNCTION        5.14          0.536        0.084
  YS02001633           JUNCTION        5.48          0.977        0.083
  YS02001649           JUNCTION        5.52          1.050        0.000
  YS02001757           JUNCTION        5.62          1.175        0.035
  YS02001895           JUNCTION        1.00          0.571        0.179
  YS02001625           JUNCTION        5.28          0.780        0.000
  YS02163301           JUNCTION        5.45          0.919        0.111
  YS02163601           JUNCTION        5.52          1.042        0.038
  YS02164001           JUNCTION        5.49          0.970        0.130
  YS02001647           JUNCTION        5.27          0.807        0.093
  YS02006553           JUNCTION        1.72          0.969        0.221
  YS02006561           JUNCTION        0.90          0.324        0.826
  YS02006556           JUNCTION        1.41          0.891        0.459
  YS02006558           JUNCTION        1.38          0.874        0.526
  YS02001783           JUNCTION        1.42          0.932        0.668
  YS02001784           JUNCTION        1.45          0.910        0.580
  YS02001786           JUNCTION        1.42          1.430        0.000
  YS02001788           JUNCTION        1.41          1.480        0.000
  YS02001790           JUNCTION        1.96          1.157        0.000
  YS02001791           JUNCTION        1.99          0.812        1.108
  YS02001793           JUNCTION        2.10          0.945        1.655
  
  
  *********************
  Node Flooding Summary
  *********************
  
  Flooding refers to all water that overflows a node, whether it ponds or not.
  --------------------------------------------------------------------------
                                                             Total   Maximum
                                 Maximum   Time of Max       Flood    Ponded
                        Hours       Rate    Occurrence      Volume     Depth
  Node                 Flooded       LPS   days hr:min    10^6 ltr    Meters
  --------------------------------------------------------------------------
  YS02001779              2.55    399.19      0  03:32       1.034     0.000
  YS02001890              0.23    106.95      0  03:01       0.038     0.000
  YS02001907              0.65    618.32      0  03:02       0.735     0.000
  YS02001629              0.01     26.91      0  02:45       0.000     0.000
  YS02001644              4.47   1134.68      0  03:29       6.401     0.000
  YS02001652              0.01     23.84      0  02:59       0.000     0.000
  YS02001655              0.01     23.67      0  03:11       0.000     0.000
  YS02001658              0.01     13.18      0  03:01       0.000     0.000
  YS02001661              0.01    182.37      0  02:59       0.001     0.000
  YS02001649              0.10     50.08      0  03:11       0.006     0.000
  YS02001625              1.11    315.14      0  03:01       0.542     0.000
  YS02001786              0.01     51.07      0  02:44       0.000     0.000
  YS02001788              0.01     78.77      0  02:44       0.000     0.000
  YS02001790              0.01      9.25      0  02:44       0.000     0.000
  JK-storage              1.77    965.13      0  03:10       2.649     0.000
  XR-storage              3.25    575.05      0  03:06       2.226     0.000
  
  
  **********************
  Storage Volume Summary
  **********************
  
  --------------------------------------------------------------------------------------------------
                         Average     Avg  Evap Exfil       Maximum     Max    Time of Max    Maximum
                          Volume    Pcnt  Pcnt  Pcnt        Volume    Pcnt     Occurrence    Outflow
  Storage Unit           1000 m3    Full  Loss  Loss       1000 m3    Full    days hr:min        LPS
  --------------------------------------------------------------------------------------------------
  JK-storage               0.116      40     0     0         0.291     100       0  02:45     600.00
  CC-storage               2.941      19     0     0         3.874      25       0  03:29     400.00
  XR-storage               0.734      79     0     0         0.926     100       0  03:06     380.00
  
  
  ***********************
  Outfall Loading Summary
  ***********************
  
  -----------------------------------------------------------
                         Flow       Avg       Max       Total
                         Freq      Flow      Flow      Volume
  Outfall Node           Pcnt       LPS       LPS    10^6 ltr
  -----------------------------------------------------------
  WSC                   99.99    695.75   1002.97      17.293
  3                     95.06    297.00    567.89       6.099
  4                     58.36     94.94    227.89       1.243
  5                      0.00      0.00      0.00       0.000
  -----------------------------------------------------------
  System                63.35   1087.69   1687.19      24.635
  
  
  ********************
  Link Flow Summary
  ********************
  
  -----------------------------------------------------------------------------
                                 Maximum  Time of Max   Maximum    Max/    Max/
                                  |Flow|   Occurrence   |Veloc|    Full    Full
  Link                 Type          LPS  days hr:min     m/sec    Flow   Depth
  -----------------------------------------------------------------------------
  WS02003066WSF200     CONDUIT    796.76     0  03:05      3.03    0.13    0.28
  WS02006287WS02006284 CONDUIT    610.97     0  03:02      2.31    0.28    0.37
  WS02006284WS02006280 CONDUIT    611.95     0  03:02      2.55    0.26    0.35
  WS02006280WS02006229 CONDUIT    612.08     0  03:02      4.12    0.13    0.24
  WS02006229WS02006228 CONDUIT    782.24     0  03:02      1.56    2.59    1.00
  WS02006256WS02006235 CONDUIT    166.25     0  00:01      2.58    1.76    1.00
  WS02006253WS02006251 CONDUIT    130.63     0  03:01      0.45    0.39    1.00
  WS02006252WS02006251 CONDUIT    400.58     0  04:29      3.19    1.47    1.00
  WS02006251WS02006249 CONDUIT    470.53     0  03:10      1.24    1.36    0.97
  WS02006249WS02006248 CONDUIT    357.63     0  02:09      1.18    1.96    0.92
  WS02006248WS02006247 CONDUIT    351.76     0  02:09      1.15    0.77    0.97
  WS02006247WS02006245 CONDUIT    344.42     0  02:09      1.11    2.73    1.00
  WS02006245WS02006243 CONDUIT    337.72     0  02:10      1.13    1.00    1.00
  WS02006243WS02006242 CONDUIT    335.67     0  04:30      0.97    0.72    1.00
  WS02006242WS02006240 CONDUIT    339.02     0  04:30      0.90    1.35    1.00
  WS02006240WS02006239 CONDUIT    342.37     0  04:30      0.93    1.08    1.00
  WS02006239WS02006238 CONDUIT    343.32     0  04:30      0.90    1.10    1.00
  WS02006238WS02006235 CONDUIT    343.52     0  04:30      1.25    0.77    1.00
  WS02006235WS02006234 CONDUIT    392.19     0  05:00      1.03    4.14    1.00
  WS02006234WS02006232 CONDUIT    392.20     0  05:00      1.13    0.79    1.00
  WS02006232WS02006231 CONDUIT    392.20     0  05:00      1.06    0.82    1.00
  WS02006231WS02006230 CONDUIT    392.22     0  05:00      1.35    5.95    1.00
  WS02006230WS02006229 CONDUIT    402.55     0  05:00      1.05    8.96    1.00
  WS02006228WS02006109 CONDUIT    782.24     0  03:02      1.56    3.42    1.00
  WS02006116WS02004401 CONDUIT    799.64     0  03:03      1.02    1.10    1.00
  WS02006115WS02006116 CONDUIT    799.48     0  03:03      1.02    1.03    1.00
  WS02006113WS02006111 CONDUIT    780.87     0  03:02      2.59    0.94    0.75
  WS02006112WS02006115 CONDUIT    799.22     0  03:03      1.02    0.47    1.00
  WS02006111WS02006112 CONDUIT    781.09     0  03:03      1.72    0.37    0.86
  WS02006110WS02006113 CONDUIT    783.39     0  03:02      1.68    0.71    0.88
  WS02006109WS02006110 CONDUIT    783.38     0  03:02      1.56    1.51    1.00
  WS02004411WS02004412 CONDUIT    796.43     0  03:04      1.14    1.13    0.83
  WS02004401WS02004402 CONDUIT    799.71     0  03:03      1.02    0.96    1.00
  WS02004413WS02003067 CONDUIT    796.22     0  03:05      1.39    0.34    0.69
  WS02004412WS02004413 CONDUIT    796.18     0  03:04      1.07    0.53    0.90
  WS02004410WS02004411 CONDUIT    797.09     0  03:04      1.13    1.09    0.84
  WS02004409WS02004410 CONDUIT    798.17     0  03:04      1.13    1.03    0.85
  WS02004407WS02004409 CONDUIT    799.81     0  03:03      1.61    0.28    0.60
  WS02004406WS02004407 CONDUIT    800.05     0  03:03      1.40    0.36    0.68
  WS02004405WS02004406 CONDUIT    800.04     0  03:03      1.02    1.58    1.00
  WS02004404WS02004405 CONDUIT    799.98     0  03:03      1.02    7.84    1.00
  WS02004403WS02004404 CONDUIT    799.81     0  03:03      1.02    0.58    1.00
  WS02004402WS02004403 CONDUIT    799.76     0  03:03      1.02    1.15    1.00
  WS02004139WS02001211 CONDUIT    380.68     0  07:20      0.69    0.48    0.59
  WS02004138WS02004139 CONDUIT    380.00     0  07:18      2.94    0.08    0.44
  WS02003067WS02003066 CONDUIT    796.66     0  03:05      1.51    0.26    0.47
  WS02001213WS02003059 CONDUIT    390.37     0  07:21      0.68    0.64    0.77
  WS02001212WS02001213 CONDUIT    389.18     0  07:20      1.31    0.60    0.47
  WS02001211WS02001212 CONDUIT    388.52     0  07:20      0.77    0.30    0.64
  WS02003072WS02003073 CONDUIT   1000.98     0  03:12      1.77    2.16    0.50
  WS02003069WS02003072 CONDUIT   1000.95     0  03:12      1.66    0.48    0.53
  WS02003060WS02003069 CONDUIT   1000.88     0  03:12      1.89    0.39    0.47
  WS02003059WS02003060 CONDUIT    392.13     0  07:21      0.93    0.26    0.67
  HS02004901HS02004770 CONDUIT     32.24     0  03:01      0.09    0.12    0.50
  HS02004876HS02004881 CONDUIT    119.33     0  03:01      1.17    1.27    0.15
  HS02004870HS02004876 CONDUIT     96.13     0  03:01      0.79    0.06    0.17
  HS02004842HS02004848 CONDUIT     15.11     0  03:01      0.07    0.01    0.33
  HS02004837HS02004842 CONDUIT     16.10     0  03:03      0.41    0.01    0.34
  HS02004830HS02004837 CONDUIT     61.24     0  03:01      0.66    0.06    0.13
  HS02004824HS02004830 CONDUIT     60.79     0  03:01      0.63    0.08    0.15
  HS02004817HS02004824 CONDUIT    117.39     0  03:02      0.30    0.05    0.56
  HS02004770HS02004777 CONDUIT    159.99     0  03:01      0.45    0.29    0.51
  HS02004799HS02004480 CONDUIT    387.38     0  03:01      1.00    0.49    0.56
  HS02004792HS02004799 CONDUIT    353.06     0  03:01      1.12    0.22    0.45
  HS02004788HS02004792 CONDUIT    202.14     0  03:02      1.22    0.13    0.24
  HS02004785HS02004788 CONDUIT    156.68     0  03:02      0.85    1.18    0.26
  HS02004777HS02004785 CONDUIT    157.13     0  03:01      0.53    0.19    0.42
  HS02004480HS02004478 CONDUIT    456.75     0  03:01      1.47    1.92    0.44
  HS02004479HS02004480 CONDUIT     74.07     0  03:02      0.22    0.07    0.53
  HS02004862HS02004870 CONDUIT     73.11     0  03:01      0.77    0.08    0.14
  HS02004848HS02004852 CONDUIT     35.11     0  03:01      0.52    0.04    0.10
  HS02004856HS02004862 CONDUIT     51.23     0  03:01      0.58    0.05    0.13
  HS02004852HS02004856 CONDUIT     35.02     0  03:02      0.32    0.04    0.16
  HS02004802HS02004478 CONDUIT    160.68     0  03:04      0.54    0.14    0.45
  HS02004478WS02006287 CONDUIT    609.84     0  03:02      2.03    0.17    0.33
  HS02004817HS02004807 CONDUIT    120.81     0  03:04      0.24    0.07    0.73
  HS02004807HS02004802 CONDUIT    156.92     0  03:03      0.45    0.30    0.51
  YS02001759YS02001757 CONDUIT    791.47     0  02:57      1.01    0.56    1.00
  YS02001762YS02001759 CONDUIT    397.64     0  02:55      0.51    0.46    1.00
  YS02001765YS02001762 CONDUIT    397.66     0  02:55      0.51    0.37    1.00
  YS02001770YS02001767 CONDUIT    397.26     0  02:55      0.51    1.57    1.00
  YS02001774YS02001770 CONDUIT    399.01     0  03:32      0.51    0.25    1.00
  YS02001779YS02001774 CONDUIT    399.27     0  03:32      0.51    0.20    1.00
  YS02001649YS02001757 CONDUIT   1040.37     0  02:52      1.32    0.63    1.00
  YS02001767YS02001765 CONDUIT    397.65     0  02:55      0.51    0.50    1.00
  YS02006561YS02001783 CONDUIT    969.39     0  03:00      2.12    0.50    1.00
  YS02001783YS02001784 CONDUIT    969.12     0  03:00      1.93    1.34    1.00
  YS02001784YS02001785 CONDUIT    970.20     0  03:01      1.93    2.26    1.00
  YS02001788YS02001790 CONDUIT    970.26     0  03:00      2.33    0.72    1.00
  YS02001790YS02001791 CONDUIT    970.53     0  03:00      2.80    1.06    1.00
  YS02001791YS02001793 CONDUIT    970.57     0  03:00      5.55    0.42    1.00
  YS02001910YS02001907 CONDUIT    553.04     0  02:53      0.70    0.31    1.00
  YS02001786YS02001788 CONDUIT    970.16     0  03:00      2.23    1.87    1.00
  YS02001915YS02001910 CONDUIT    552.98     0  02:53      0.70    0.27    1.00
  YS02001918YS02001915 CONDUIT    290.97     0  02:53      0.44    0.16    1.00
  YS02001923YS02001920 CONDUIT    286.98     0  02:53      0.72    0.13    1.00
  YS02001926YS02001923 CONDUIT    274.11     0  02:53      0.82    0.39    0.98
  YS02001929YS02001926 CONDUIT    233.09     0  02:53      0.87    0.11    0.86
  YS02001920YS02001918 CONDUIT    290.05     0  02:53      0.70    0.28    1.00
  YS02001629YS02163301 CONDUIT    234.33     0  02:51      0.30    0.29    1.00
  YS02001619YS02001622 CONDUIT    338.26     0  03:01      0.60    0.50    1.00
  YS02001622YS02001625 CONDUIT    338.01     0  03:01      0.43    0.18    1.00
  YS02001625YS02001629 CONDUIT    234.09     0  02:51      0.30    0.11    1.00
  YS02163301YS02001633 CONDUIT    234.34     0  02:51      0.30    0.22    1.00
  YS02163601YS02164001 CONDUIT    493.43     0  02:51      0.63    0.44    1.00
  YS02164001YS02001641 CONDUIT    493.29     0  02:51      0.63    0.67    1.00
  YS02001641YS02001644 CONDUIT    493.16     0  02:51      0.63    1.59    1.00
  YS02001647YS02001649 CONDUIT    750.53     0  02:51      0.96    0.40    1.00
  YS02006553YS02006556 CONDUIT    672.10     0  03:32      0.86    0.57    1.00
  YS02006556YS02006558 CONDUIT    672.01     0  03:32      0.86    0.53    1.00
  YSB6556YSB1171       CONDUIT     41.33     0  03:02      0.13    0.04    0.80
  YS02001907YS02006553 CONDUIT    672.00     0  03:32      0.75    0.79    1.00
  YS02006558YS02006561 CONDUIT    969.15     0  03:00      3.43    2.14    1.00
  YS02001633YS02163601 CONDUIT    493.12     0  02:51      0.63    0.52    1.00
  YS02001644YS02001647 CONDUIT    750.56     0  02:51      0.96    0.44    1.00
  YS02001745YS02001748 CONDUIT    499.33     0  02:48      1.48    0.19    0.94
  YS02001748YS02001751 CONDUIT    397.52     0  03:01      1.03    0.20    1.00
  YS02001751YS02001754 CONDUIT    397.66     0  03:01      0.84    0.19    1.00
  YS02001754YS02001757 CONDUIT    397.89     0  03:01      0.51    0.16    1.00
  YS02001882YS02001884 CONDUIT     49.08     0  02:47      0.08    0.06    1.00
  YS02001884YS02001887 CONDUIT     57.68     0  02:46      0.07    0.08    1.00
  YS02001890YS02001895 CONDUIT    516.86     0  03:06      0.66    0.24    1.00
  YS02001895YS02001898 CONDUIT    516.81     0  03:06      0.66    0.90    1.00
  YS02001898YS02001901 CONDUIT    516.88     0  03:06      0.66    0.33    1.00
  YS02001901YS02001904 CONDUIT    516.79     0  03:06      0.66    0.80    1.00
  YS02001904YS02001907 CONDUIT    516.87     0  03:06      0.66    0.18    1.00
  YS02001887YS02001890 CONDUIT    623.38     0  03:01      0.79    1.07    1.00
  YS02001652YS02001649 CONDUIT    483.25     0  03:01      0.62    0.24    1.00
  YS02001655YS02001652 CONDUIT    482.81     0  03:01      0.89    0.23    1.00
  YS02001658YS02001655 CONDUIT    482.45     0  03:01      1.18    0.20    1.00
  YS02001661YS02001658 CONDUIT    515.52     0  02:46      1.56    0.20    1.00
  YS02001664YS02001661 CONDUIT    757.81     0  02:57      1.64    0.24    0.73
  YSB1154YSB6556       CONDUIT     41.77     0  03:01      0.19    0.08    0.69
  YSB1174YSB1171       CONDUIT     34.49     0  03:01      0.10    0.05    0.81
  YSB1171HS02004479    CONDUIT     72.19     0  03:02      0.54    0.05    0.65
  HS02004881HS02006253 CONDUIT    131.62     0  03:01      1.59    0.03    0.31
  YS02001793JiankangQianchi CONDUIT    989.06     0  02:38     14.33    0.08    1.00
  YS02001757CaochengTiaoxuchi CONDUIT   2023.46     0  02:52      2.91    0.89    1.00
  WSF200WS02003060     CONDUIT    796.44     0  03:05      2.10    0.18    0.38
  1                    CONDUIT   1002.97     0  03:13      3.33    0.35    0.41
  2                    CONDUIT    227.89     0  02:40      6.03    0.55    0.53
  3                    CONDUIT    567.89     0  03:00      9.99    0.90    0.75
  4                    CONDUIT      0.00     0  00:00      0.00    0.00    0.00
  CC-Pump-1            PUMP       200.00     0  02:30              1.00
  CC-Pump-2            PUMP       200.00     0  02:06              1.00
  JK-Pump-1            PUMP       300.00     0  00:00              1.00
  JK-Pump-2            PUMP       300.00     0  02:15              1.00
  XR-Pump-1            PUMP        95.00     0  00:00              1.00
  XR-Pump-2            PUMP        95.00     0  00:00              1.00
  XR-Pump-3            PUMP        95.00     0  00:20              1.00
  XR-Pump-4            PUMP        95.00     0  00:40              1.00
  
  
  ***************************
  Flow Classification Summary
  ***************************
  
  -------------------------------------------------------------------------------------
                      Adjusted    ---------- Fraction of Time in Flow Class ---------- 
                       /Actual         Up    Down  Sub   Sup   Up    Down  Norm  Inlet 
  Conduit               Length    Dry  Dry   Dry   Crit  Crit  Crit  Crit  Ltd   Ctrl  
  -------------------------------------------------------------------------------------
  WS02003066WSF200        1.00   0.03  0.02  0.00  0.00  0.95  0.00  0.00  0.62  0.00
  WS02006287WS02006284    1.00   0.03  0.01  0.00  0.58  0.37  0.00  0.00  0.67  0.00
  WS02006284WS02006280    1.00   0.04  0.00  0.00  0.00  0.00  0.00  0.96  0.00  0.00
  WS02006280WS02006229    1.00   0.04  0.00  0.00  0.00  0.00  0.00  0.96  0.00  0.00
  WS02006229WS02006228    1.00   0.00  0.00  0.00  0.99  0.00  0.00  0.01  0.00  0.00
  WS02006256WS02006235    1.00   0.00  0.00  0.00  1.00  0.00  0.00  0.00  0.00  0.00
  WS02006253WS02006251    1.00   0.03  0.01  0.00  0.96  0.00  0.00  0.00  0.00  0.00
  WS02006252WS02006251    1.00   0.07  0.00  0.00  0.00  0.00  0.93  0.00  0.00  0.00
  WS02006251WS02006249    1.00   0.00  0.00  0.00  1.00  0.00  0.00  0.00  0.24  0.00
  WS02006249WS02006248    1.00   0.00  0.02  0.00  0.92  0.00  0.06  0.00  0.00  0.00
  WS02006248WS02006247    1.00   0.02  0.00  0.00  0.98  0.00  0.00  0.00  0.12  0.00
  WS02006247WS02006245    1.00   0.02  0.00  0.00  0.98  0.00  0.00  0.00  0.00  0.00
  WS02006245WS02006243    1.00   0.01  0.00  0.00  0.95  0.00  0.00  0.03  0.01  0.00
  WS02006243WS02006242    1.00   0.01  0.00  0.00  0.99  0.00  0.00  0.00  0.21  0.00
  WS02006242WS02006240    1.00   0.00  0.00  0.00  1.00  0.00  0.00  0.00  0.00  0.00
  WS02006240WS02006239    1.00   0.00  0.00  0.00  0.97  0.00  0.00  0.03  0.01  0.00
  WS02006239WS02006238    1.00   0.00  0.00  0.00  1.00  0.00  0.00  0.00  0.00  0.00
  WS02006238WS02006235    1.00   0.00  0.00  0.00  1.00  0.00  0.00  0.00  0.00  0.00
  WS02006235WS02006234    1.00   0.00  0.00  0.00  0.97  0.00  0.03  0.00  0.00  0.00
  WS02006234WS02006232    1.00   0.00  0.00  0.00  1.00  0.00  0.00  0.00  0.00  0.00
  WS02006232WS02006231    1.00   0.00  0.00  0.00  0.99  0.00  0.00  0.00  0.00  0.00
  WS02006231WS02006230    1.00   0.00  0.00  0.00  0.74  0.00  0.25  0.00  0.00  0.00
  WS02006230WS02006229    1.00   0.00  0.00  0.00  0.99  0.00  0.00  0.01  0.01  0.00
  WS02006228WS02006109    1.00   0.00  0.00  0.00  1.00  0.00  0.00  0.00  0.00  0.00
  WS02006116WS02004401    1.00   0.02  0.00  0.00  0.98  0.00  0.00  0.00  0.00  0.00
  WS02006115WS02006116    1.00   0.02  0.00  0.00  0.97  0.00  0.00  0.01  0.00  0.00
  WS02006113WS02006111    1.00   0.02  0.00  0.00  0.03  0.95  0.00  0.00  0.08  0.00
  WS02006112WS02006115    1.00   0.02  0.00  0.00  0.98  0.00  0.00  0.00  0.00  0.00
  WS02006111WS02006112    1.00   0.02  0.00  0.00  0.98  0.00  0.00  0.00  0.89  0.00
  WS02006110WS02006113    1.00   0.01  0.01  0.00  0.98  0.00  0.00  0.00  0.00  0.00
  WS02006109WS02006110    1.00   0.00  0.01  0.00  0.98  0.00  0.01  0.00  0.00  0.00
  WS02004411WS02004412    1.00   0.03  0.00  0.00  0.97  0.00  0.00  0.00  0.00  0.00
  WS02004401WS02004402    1.00   0.02  0.00  0.00  0.98  0.00  0.00  0.00  0.00  0.00
  WS02004413WS02003067    1.00   0.04  0.01  0.00  0.00  0.00  0.95  0.00  0.00  0.00
  WS02004412WS02004413    1.00   0.03  0.00  0.00  0.97  0.00  0.00  0.00  0.03  0.00
  WS02004410WS02004411    1.00   0.03  0.00  0.00  0.97  0.00  0.00  0.00  0.03  0.00
  WS02004409WS02004410    1.00   0.03  0.00  0.00  0.97  0.00  0.00  0.00  0.03  0.00
  WS02004407WS02004409    1.00   0.03  0.00  0.00  0.96  0.00  0.00  0.00  0.89  0.00
  WS02004406WS02004407    1.00   0.00  0.03  0.00  0.97  0.00  0.00  0.00  0.00  0.00
  WS02004405WS02004406    1.00   0.00  0.00  0.00  1.00  0.00  0.00  0.00  0.00  0.00
  WS02004404WS02004405    1.00   0.00  0.00  0.00  1.00  0.00  0.00  0.00  0.00  0.00
  WS02004403WS02004404    1.00   0.00  0.02  0.00  0.98  0.00  0.00  0.00  0.01  0.00
  WS02004402WS02004403    1.00   0.02  0.00  0.00  0.98  0.00  0.00  0.00  0.00  0.00
  WS02004139WS02001211    1.00   0.00  0.00  0.00  1.00  0.00  0.00  0.00  0.00  0.00
  WS02004138WS02004139    1.00   0.00  0.00  0.00  0.99  0.01  0.00  0.00  1.00  0.00
  WS02003067WS02003066    1.00   0.05  0.00  0.00  0.95  0.00  0.00  0.00  0.00  0.00
  WS02001213WS02003059    1.00   0.00  0.00  0.00  0.99  0.00  0.00  0.00  0.00  0.00
  WS02001212WS02001213    1.00   0.00  0.00  0.00  0.91  0.00  0.08  0.00  0.00  0.00
  WS02001211WS02001212    1.00   0.00  0.00  0.00  1.00  0.00  0.00  0.00  0.00  0.00
  WS02003072WS02003073    1.00   0.00  0.00  0.00  0.00  0.00  0.00  1.00  0.00  0.00
  WS02003069WS02003072    1.00   0.00  0.00  0.00  0.99  0.01  0.00  0.00  0.17  0.00
  WS02003060WS02003069    1.00   0.00  0.00  0.00  0.99  0.01  0.00  0.00  0.07  0.00
  WS02003059WS02003060    1.00   0.00  0.00  0.00  1.00  0.00  0.00  0.00  0.01  0.00
  HS02004901HS02004770    1.00   0.04  0.00  0.00  0.96  0.00  0.00  0.00  0.01  0.00
  HS02004876HS02004881    1.00   0.02  0.00  0.00  0.87  0.11  0.00  0.00  0.00  0.00
  HS02004870HS02004876    1.00   0.01  0.00  0.00  0.99  0.00  0.00  0.00  0.95  0.00
  HS02004842HS02004848    1.00   0.00  0.04  0.00  0.96  0.00  0.00  0.00  0.58  0.00
  HS02004837HS02004842    1.00   0.00  0.00  0.00  0.99  0.01  0.00  0.00  0.11  0.00
  HS02004830HS02004837    1.00   0.00  0.00  0.00  1.00  0.00  0.00  0.00  0.99  0.00
  HS02004824HS02004830    1.00   0.00  0.00  0.00  1.00  0.00  0.00  0.00  0.01  0.00
  HS02004817HS02004824    1.00   0.00  0.00  0.00  1.00  0.00  0.00  0.00  0.98  0.00
  HS02004770HS02004777    1.00   0.00  0.04  0.00  0.96  0.00  0.00  0.00  0.04  0.00
  HS02004799HS02004480    1.00   0.00  0.02  0.00  0.95  0.00  0.02  0.00  0.00  0.00
  HS02004792HS02004799    1.00   0.00  0.00  0.00  0.99  0.01  0.00  0.00  0.98  0.00
  HS02004788HS02004792    1.00   0.00  0.00  0.00  0.99  0.01  0.00  0.00  0.98  0.00
  HS02004785HS02004788    1.00   0.00  0.00  0.00  1.00  0.00  0.00  0.00  0.00  0.00
  HS02004777HS02004785    1.00   0.00  0.00  0.00  1.00  0.00  0.00  0.00  0.15  0.00
  HS02004480HS02004478    1.00   0.04  0.00  0.00  0.66  0.00  0.00  0.30  0.00  0.00
  HS02004479HS02004480    1.00   0.02  0.00  0.00  0.98  0.00  0.00  0.00  0.13  0.00
  HS02004862HS02004870    1.00   0.00  0.00  0.00  1.00  0.00  0.00  0.00  0.06  0.00
  HS02004848HS02004852    1.00   0.04  0.00  0.00  0.96  0.00  0.00  0.00  0.64  0.00
  HS02004856HS02004862    1.00   0.00  0.05  0.00  0.95  0.00  0.00  0.00  0.79  0.00
  HS02004852HS02004856    1.00   0.04  0.00  0.00  0.96  0.00  0.00  0.00  0.81  0.00
  HS02004802HS02004478    1.00   0.04  0.00  0.00  0.96  0.00  0.00  0.00  0.03  0.00
  HS02004478WS02006287    1.00   0.05  0.00  0.00  0.72  0.23  0.00  0.00  0.66  0.00
  HS02004817HS02004807    1.00   0.00  0.04  0.00  0.96  0.00  0.00  0.00  0.01  0.00
  HS02004807HS02004802    1.00   0.04  0.00  0.00  0.96  0.00  0.00  0.00  0.00  0.00
  YS02001759YS02001757    1.00   0.00  0.00  0.00  1.00  0.00  0.00  0.00  0.17  0.00
  YS02001762YS02001759    1.00   0.00  0.00  0.00  1.00  0.00  0.00  0.00  0.04  0.00
  YS02001765YS02001762    1.00   0.00  0.00  0.00  1.00  0.00  0.00  0.00  0.17  0.00
  YS02001770YS02001767    1.00   0.00  0.00  0.00  1.00  0.00  0.00  0.00  0.00  0.00
  YS02001774YS02001770    1.00   0.00  0.04  0.00  0.96  0.00  0.00  0.00  0.04  0.00
  YS02001779YS02001774    1.00   0.00  0.00  0.00  1.00  0.00  0.00  0.00  0.22  0.00
  YS02001649YS02001757    1.00   0.00  0.00  0.00  1.00  0.00  0.00  0.00  0.17  0.00
  YS02001767YS02001765    1.00   0.00  0.00  0.00  1.00  0.00  0.00  0.00  0.01  0.00
  YS02006561YS02001783    1.00   0.05  0.00  0.00  0.34  0.61  0.00  0.00  0.51  0.00
  YS02001783YS02001784    1.00   0.00  0.05  0.00  0.95  0.00  0.00  0.00  0.01  0.00
  YS02001784YS02001785    1.00   0.00  0.00  0.00  1.00  0.00  0.00  0.00  0.21  0.00
  YS02001788YS02001790    1.00   0.00  0.00  0.00  0.38  0.62  0.00  0.00  0.46  0.00
  YS02001790YS02001791    1.00   0.00  0.00  0.00  0.35  0.65  0.00  0.00  0.47  0.00
  YS02001791YS02001793    1.00   0.00  0.00  0.00  0.36  0.64  0.00  0.00  0.01  0.00
  YS02001910YS02001907    1.00   0.00  0.00  0.00  0.98  0.00  0.00  0.02  0.13  0.00
  YS02001786YS02001788    1.00   0.00  0.00  0.00  0.38  0.62  0.00  0.00  0.00  0.00
  YS02001915YS02001910    1.00   0.00  0.00  0.00  0.99  0.01  0.00  0.00  0.19  0.00
  YS02001918YS02001915    1.00   0.00  0.01  0.00  0.98  0.01  0.00  0.00  0.56  0.00
  YS02001923YS02001920    1.00   0.00  0.00  0.00  1.00  0.00  0.00  0.00  0.83  0.00
  YS02001926YS02001923    1.00   0.00  0.03  0.00  0.18  0.00  0.79  0.00  0.00  0.00
  YS02001929YS02001926    1.00   0.00  0.04  0.00  0.96  0.00  0.00  0.00  0.75  0.00
  YS02001920YS02001918    1.00   0.00  0.01  0.00  0.99  0.00  0.00  0.00  0.00  0.00
  YS02001629YS02163301    1.00   0.05  0.00  0.00  0.95  0.00  0.00  0.00  0.00  0.00
  YS02001619YS02001622    1.00   0.04  0.00  0.00  0.96  0.00  0.00  0.00  0.00  0.00
  YS02001622YS02001625    1.00   0.04  0.00  0.00  0.96  0.00  0.00  0.00  0.08  0.00
  YS02001625YS02001629    1.00   0.04  0.02  0.00  0.93  0.00  0.02  0.00  0.00  0.00
  YS02163301YS02001633    1.00   0.00  0.05  0.00  0.95  0.00  0.00  0.00  0.00  0.00
  YS02163601YS02164001    1.00   0.00  0.03  0.00  0.97  0.00  0.00  0.00  0.00  0.00
  YS02164001YS02001641    1.00   0.01  0.02  0.00  0.97  0.00  0.00  0.00  0.06  0.00
  YS02001641YS02001644    1.00   0.00  0.01  0.00  0.99  0.00  0.00  0.00  0.00  0.00
  YS02001647YS02001649    1.00   0.00  0.05  0.00  0.95  0.00  0.00  0.00  0.01  0.00
  YS02006553YS02006556    1.00   0.01  0.00  0.00  0.99  0.00  0.00  0.00  0.03  0.00
  YS02006556YS02006558    1.00   0.00  0.00  0.00  1.00  0.00  0.00  0.00  0.00  0.00
  YSB6556YSB1171          1.00   0.02  0.01  0.00  0.96  0.00  0.00  0.00  0.00  0.00
  YS02001907YS02006553    1.00   0.00  0.02  0.00  0.98  0.00  0.00  0.00  0.00  0.00
  YS02006558YS02006561    1.00   0.05  0.00  0.00  0.21  0.74  0.00  0.00  0.44  0.00
  YS02001633YS02163601    1.00   0.00  0.01  0.00  0.99  0.00  0.00  0.00  0.16  0.00
  YS02001644YS02001647    1.00   0.00  0.05  0.00  0.95  0.00  0.00  0.00  0.00  0.00
  YS02001745YS02001748    1.00   0.00  0.00  0.00  0.88  0.01  0.00  0.11  0.05  0.00
  YS02001748YS02001751    1.00   0.00  0.00  0.00  0.97  0.03  0.00  0.00  0.15  0.00
  YS02001751YS02001754    1.00   0.00  0.00  0.00  0.94  0.00  0.00  0.06  0.02  0.00
  YS02001754YS02001757    1.00   0.00  0.00  0.00  0.99  0.01  0.00  0.00  0.21  0.00
  YS02001882YS02001884    1.00   0.04  0.00  0.00  0.95  0.00  0.00  0.00  0.00  0.00
  YS02001884YS02001887    1.00   0.03  0.01  0.00  0.96  0.00  0.00  0.00  0.00  0.00
  YS02001890YS02001895    1.00   0.00  0.04  0.00  0.95  0.00  0.00  0.00  0.00  0.00
  YS02001895YS02001898    1.00   0.05  0.00  0.00  0.94  0.00  0.01  0.00  0.00  0.00
  YS02001898YS02001901    1.00   0.05  0.00  0.00  0.95  0.00  0.00  0.00  0.03  0.00
  YS02001901YS02001904    1.00   0.05  0.00  0.00  0.95  0.00  0.00  0.00  0.00  0.00
  YS02001904YS02001907    1.00   0.00  0.04  0.00  0.95  0.00  0.00  0.00  0.00  0.00
  YS02001887YS02001890    1.00   0.00  0.00  0.00  0.98  0.00  0.02  0.00  0.00  0.00
  YS02001652YS02001649    1.00   0.00  0.00  0.00  1.00  0.00  0.00  0.00  0.19  0.00
  YS02001655YS02001652    1.00   0.00  0.00  0.00  0.94  0.00  0.00  0.06  0.03  0.00
  YS02001658YS02001655    1.00   0.00  0.04  0.00  0.93  0.03  0.00  0.00  0.13  0.00
  YS02001661YS02001658    1.00   0.04  0.00  0.00  0.88  0.08  0.00  0.00  0.09  0.00
  YS02001664YS02001661    1.00   0.04  0.00  0.00  0.86  0.10  0.00  0.00  0.23  0.00
  YSB1154YSB6556          1.00   0.04  0.00  0.00  0.96  0.00  0.00  0.00  0.02  0.00
  YSB1174YSB1171          1.00   0.03  0.01  0.00  0.97  0.00  0.00  0.00  0.00  0.00
  YSB1171HS02004479       1.00   0.02  0.00  0.00  0.97  0.00  0.00  0.00  0.11  0.00
  HS02004881HS02006253    1.00   0.03  0.00  0.00  0.82  0.01  0.00  0.14  0.66  0.00
  YS02001793JiankangQianchi    1.00   0.00  0.00  0.00  0.48  0.51  0.00  0.00  0.12  0.00
  YS02001757CaochengTiaoxuchi    1.00   0.00  0.07  0.00  0.87  0.06  0.00  0.00  0.00  0.00
  WSF200WS02003060        1.00   0.00  0.03  0.00  0.86  0.11  0.00  0.00  0.31  0.00
  1                       1.00   0.00  0.00  0.00  0.00  1.00  0.00  0.00  0.29  0.00
  2                       1.00   0.41  0.00  0.00  0.00  0.59  0.00  0.00  0.08  0.00
  3                       1.00   0.05  0.00  0.00  0.00  0.95  0.00  0.00  0.24  0.00
  4                       1.00   1.00  0.00  0.00  0.00  0.00  0.00  0.00  0.00  0.00
  
  
  *************************
  Conduit Surcharge Summary
  *************************
  
  ----------------------------------------------------------------------------
                                                           Hours        Hours 
                         --------- Hours Full --------   Above Full   Capacity
  Conduit                Both Ends  Upstream  Dnstream   Normal Flow   Limited
  ----------------------------------------------------------------------------
  WS02006229WS02006228        3.35      3.53      3.35      5.19         3.35
  WS02006256WS02006235        6.04      6.05      7.83      2.91         0.01
  WS02006253WS02006251        0.01      0.01      0.31      0.01         0.01
  WS02006252WS02006251        2.43      2.43      3.45      3.19         0.01
  WS02006251WS02006249        0.01      0.05      0.01      2.69         0.01
  WS02006249WS02006248        0.01      0.01      0.01      4.79         0.01
  WS02006248WS02006247        0.01      0.01      0.28      0.01         0.01
  WS02006247WS02006245        0.24      0.41      0.24      5.21         0.24
  WS02006245WS02006243        0.37      0.37      0.69      0.01         0.01
  WS02006243WS02006242        0.79      0.79      2.98      0.01         0.01
  WS02006242WS02006240        1.19      1.19      3.26      3.01         0.01
  WS02006240WS02006239        2.02      2.02      2.41      0.03         0.01
  WS02006239WS02006238        3.15      3.15      3.24      0.06         0.05
  WS02006238WS02006235        3.15      3.15      3.51      0.01         0.01
  WS02006235WS02006234        1.14      1.14      3.02      6.07         0.01
  WS02006234WS02006232        2.02      2.02      3.59      0.01         0.01
  WS02006232WS02006231        1.07      1.07      3.59      0.01         0.01
  WS02006231WS02006230        0.70      0.70      1.09      6.06         0.01
  WS02006230WS02006229        4.26      4.90      4.26      6.16         4.26
  WS02006228WS02006109        3.43      3.96      3.43      5.78         3.43
  WS02006116WS02004401        0.29      0.29      0.30      0.20         0.21
  WS02006115WS02006116        0.13      0.13      0.14      0.07         0.07
  WS02006112WS02006115        0.11      0.11      1.19      0.01         0.01
  WS02006111WS02006112        0.01      0.01      5.25      0.01         0.01
  WS02006110WS02006113        0.01      0.01      3.79      0.01         0.01
  WS02006109WS02006110        1.15      1.15      3.96      1.15         0.01
  WS02004411WS02004412        0.01      0.01      0.01      0.26         0.01
  WS02004401WS02004402        0.30      0.30      0.37      0.01         0.01
  WS02004410WS02004411        0.01      0.01      0.01      0.19         0.01
  WS02004409WS02004410        0.01      0.01      0.01      0.09         0.01
  WS02004406WS02004407        0.01      0.01      0.63      0.01         0.01
  WS02004405WS02004406        0.63      0.69      0.63      1.17         0.63
  WS02004404WS02004405        0.69      0.80      0.69      5.90         0.69
  WS02004403WS02004404        0.40      0.40      0.80      0.01         0.01
  WS02004402WS02004403        0.37      0.37      0.40      0.27         0.28
  WS02003072WS02003073        0.01      0.01      0.01      5.60         0.01
  HS02004876HS02004881        0.01      0.01      0.01      0.17         0.01
  HS02004785HS02004788        0.01      0.01      0.01      0.10         0.01
  HS02004480HS02004478        0.01      0.01      0.01      0.52         0.01
  YS02001759YS02001757        5.54      5.54      5.62      0.01         0.01
  YS02001762YS02001759        5.51      5.51      5.54      0.01         0.01
  YS02001765YS02001762        5.48      5.48      5.51      0.01         0.01
  YS02001770YS02001767        5.46      5.46      5.46      0.34         0.85
  YS02001774YS02001770        5.41      5.41      5.50      0.01         0.01
  YS02001779YS02001774        5.23      5.23      5.50      0.01         0.01
  YS02001649YS02001757        5.52      5.52      5.62      0.01         0.01
  YS02001767YS02001765        5.46      5.46      5.48      0.01         0.01
  YS02006561YS02001783        0.90      0.90      1.42      0.01         0.01
  YS02001783YS02001784        1.42      1.42      1.45      1.35         1.21
  YS02001784YS02001785        1.42      1.45      1.42      2.29         1.42
  YS02001788YS02001790        1.41      1.41      1.96      0.01         0.01
  YS02001790YS02001791        1.96      1.96      1.99      0.75         0.74
  YS02001791YS02001793        1.99      1.99      2.14      0.01         0.01
  YS02001910YS02001907        1.21      1.21      1.65      0.01         0.01
  YS02001786YS02001788        1.41      1.42      1.41      1.86         1.41
  YS02001915YS02001910        1.01      1.01      1.21      0.01         0.01
  YS02001918YS02001915        0.78      0.78      1.01      0.01         0.01
  YS02001923YS02001920        0.60      0.60      0.82      0.01         0.01
  YS02001926YS02001923        0.01      0.01      0.01      0.01         0.01
  YS02001929YS02001926        0.01      0.01      0.01      0.01         0.01
  YS02001920YS02001918        0.78      0.78      0.82      0.01         0.01
  YS02001629YS02163301        5.42      5.42      5.45      0.01         0.01
  YS02001619YS02001622        5.13      5.13      5.14      0.01         0.01
  YS02001622YS02001625        5.14      5.14      5.28      0.01         0.01
  YS02001625YS02001629        5.12      5.12      5.28      0.01         0.01
  YS02163301YS02001633        5.45      5.45      5.49      0.01         0.01
  YS02163601YS02164001        5.49      5.49      5.52      0.01         0.01
  YS02164001YS02001641        5.49      5.49      5.50      0.01         0.02
  YS02001641YS02001644        5.50      5.50      5.50      1.47         1.47
  YS02001647YS02001649        5.27      5.27      5.52      0.01         0.01
  YS02006553YS02006556        1.41      1.41      1.72      0.01         0.01
  YS02006556YS02006558        1.55      1.55      1.79      0.01         0.01
  YS02001907YS02006553        2.24      2.24      2.44      0.01         0.01
  YS02006558YS02006561        1.10      1.38      1.10      2.09         1.10
  YS02001633YS02163601        5.48      5.48      5.52      0.01         0.01
  YS02001644YS02001647        5.27      5.27      5.50      0.01         0.01
  YS02001745YS02001748        0.01      0.01      4.99      0.01         0.01
  YS02001748YS02001751        5.02      5.02      5.10      0.01         0.01
  YS02001751YS02001754        5.10      5.10      5.23      0.01         0.01
  YS02001754YS02001757        5.26      5.26      5.62      0.01         0.01
  YS02001882YS02001884        1.02      1.02      1.05      0.01         0.01
  YS02001884YS02001887        1.11      1.11      1.13      0.01         0.01
  YS02001890YS02001895        1.00      1.00      1.22      0.01         0.01
  YS02001895YS02001898        0.98      0.98      1.00      0.01         0.01
  YS02001898YS02001901        1.01      1.01      1.10      0.01         0.01
  YS02001901YS02001904        1.08      1.08      1.10      0.01         0.01
  YS02001904YS02001907        1.08      1.08      1.74      0.01         0.01
  YS02001887YS02001890        1.16      1.16      1.18      0.07         0.01
  YS02001652YS02001649        5.27      5.27      5.52      0.01         0.01
  YS02001655YS02001652        5.13      5.13      5.26      0.01         0.01
  YS02001658YS02001655        5.02      5.02      5.13      0.01         0.01
  YS02001661YS02001658        0.24      0.24      5.02      0.01         0.01
  YS02001664YS02001661        0.01      0.01      1.22      0.01         0.01
  YS02001793JiankangQianchi        2.10      2.10      2.71      0.01         0.01
  YS02001757CaochengTiaoxuchi        4.79      4.79      5.62      0.01         0.01
  
  
  ***************
  Pumping Summary
  ***************
  
  ---------------------------------------------------------------------------------------------------------
                                                  Min       Avg       Max     Total     Power    % Time Off
                        Percent   Number of      Flow      Flow      Flow    Volume     Usage    Pump Curve
  Pump                 Utilized   Start-Ups       LPS       LPS       LPS  10^6 ltr     Kw-hr    Low   High
  ---------------------------------------------------------------------------------------------------------
  CC-Pump-1               70.15           7      0.00    141.57    200.00     2.819      4.67    0.0   12.3
  CC-Pump-2               70.15           4      0.00    156.19    200.00     3.082      5.34    0.0   12.3
  JK-Pump-1              100.00           2      0.00    183.04    300.00     4.047     51.36    0.0    0.0
  JK-Pump-2               95.73           3      0.00    194.74    300.00     4.070     52.21    0.0    0.0
  XR-Pump-1               87.22           6      0.00     75.74     95.00     1.881     22.08    0.0    0.0
  XR-Pump-2               93.61           7      0.00     69.97     95.00     1.910     22.56    0.0    0.0
  XR-Pump-3               93.60           6      0.00     81.23     95.00     2.080     22.05    0.0    0.0
  XR-Pump-4               93.61           3      0.00     82.45     95.00     2.080     20.46    0.0    0.0
  

  Analysis begun on:  Fri Jan  7 12:04:22 2022
  Analysis ended on:  Fri Jan  7 12:04:25 2022
  Total elapsed time: 00:00:03