
  EPA STORM WATER MANAGEMENT MODEL - VERSION 5.1 (Build 5.3.0.dev0)
  --------------------------------------------------------------

  WARNING 04: minimum elevation drop used for Conduit WS02004404WS02004405
  WARNING 03: negative offset ignored for Link YS02001904YS02001907
  
  *********************************************************
  NOTE: The summary statistics displayed in this report are
  based on results found at every computational time step,  
  not just on results from each reporting time step.
  *********************************************************
  
  ****************
  Analysis Options
  ****************
  Flow Units ............... LPS
  Process Models:
    Rainfall/Runoff ........ YES
    RDII ................... NO
    Snowmelt ............... NO
    Groundwater ............ NO
    Flow Routing ........... YES
    Ponding Allowed ........ NO
    Water Quality .......... NO
  Infiltration Method ...... HORTON
  Flow Routing Method ...... DYNWAVE
  Surcharge Method ......... EXTRAN
  Starting Date ............ 08/28/2015 08:00:00
  Ending Date .............. 08/28/2015 15:50:00
  Antecedent Dry Days ...... 8.0
  Report Time Step ......... 00:01:00
  Wet Time Step ............ 00:01:00
  Dry Time Step ............ 00:01:00
  Routing Time Step ........ 5.00 sec
  Variable Time Step ....... YES
  Maximum Trials ........... 8
  Number of Threads ........ 4
  Head Tolerance ........... 0.001500 m
  
  
  **************************        Volume         Depth
  Runoff Quantity Continuity     hectare-m            mm
  **************************     ---------       -------
  Total Precipitation ......        10.887        23.836
  Evaporation Loss .........         0.000         0.000
  Infiltration Loss ........         2.344         5.132
  Surface Runoff ...........         7.303        15.990
  Final Storage ............         1.241         2.717
  Continuity Error (%) .....        -0.012
  
  
  **************************        Volume        Volume
  Flow Routing Continuity        hectare-m      10^6 ltr
  **************************     ---------     ---------
  Dry Weather Inflow .......         0.616         6.165
  Wet Weather Inflow .......         7.302        73.016
  Groundwater Inflow .......         0.000         0.000
  RDII Inflow ..............         0.000         0.000
  External Inflow ..........         0.102         1.024
  External Outflow .........         3.071        30.712
  Flooding Loss ............         4.487        44.873
  Evaporation Loss .........         0.000         0.000
  Exfiltration Loss ........         0.000         0.000
  Initial Stored Volume ....         0.076         0.761
  Final Stored Volume ......         0.639         6.392
  Continuity Error (%) .....        -1.250
  
  
  *************************
  Highest Continuity Errors
  *************************
  Node YS02001884 (9.73%)
  Node HS02004842 (8.73%)
  Node JK-storage (-7.16%)
  Node HS02004817 (1.69%)
  Node YSB1171 (1.47%)
  
  
  ***************************
  Time-Step Critical Elements
  ***************************
  Link 3 (68.40%)
  Link WS02006252WS02006251 (25.03%)
  Link WS02006238WS02006235 (2.41%)
  
  
  ********************************
  Highest Flow Instability Indexes
  ********************************
  Link WS02006111WS02006112 (27)
  Link YS02163601YS02164001 (26)
  Link YS02001629YS02163301 (25)
  Link YS02001619YS02001622 (25)
  Link YS02163301YS02001633 (25)
  
  
  *************************
  Routing Time Step Summary
  *************************
  Minimum Time Step           :     0.14 sec
  Average Time Step           :     0.68 sec
  Maximum Time Step           :     5.00 sec
  Percent in Steady State     :    -0.00
  Average Iterations per Step :     3.81
  Percent Not Converging      :    13.97
  
  
  ***************************
  Subcatchment Runoff Summary
  ***************************
  
  ------------------------------------------------------------------------------------------------------------------------------
                            Total      Total      Total      Total     Imperv       Perv      Total       Total     Peak  Runoff
                           Precip      Runon       Evap      Infil     Runoff     Runoff     Runoff      Runoff   Runoff   Coeff
  Subcatchment                 mm         mm         mm         mm         mm         mm         mm    10^6 ltr      LPS
  ------------------------------------------------------------------------------------------------------------------------------
  sub0                      23.84       0.00       0.00       1.03      20.90       0.64      21.54        0.02     4.74   0.904
  sub1                      23.84       0.00       0.00       1.74      19.95       0.88      20.83        0.14    30.53   0.874
  sub2                      23.84       0.00       0.00       6.87      14.10       1.95      16.05        0.15    28.29   0.673
  sub3                      23.84       0.00       0.00       7.14      14.06       1.68      15.74        0.35    61.76   0.660
  sub4                      23.84       0.00       0.00       1.87      19.78       0.75      20.54        0.43    72.83   0.862
  sub5                      23.84       0.00       0.00       1.08      20.85       0.59      21.44        0.24    54.28   0.899
  sub7                      23.84       0.00       0.00       1.37      20.44       0.77      21.21        0.07    17.57   0.890
  sub8                      23.84       0.00       0.00       1.38      20.42       0.76      21.19        0.14    32.08   0.889
  sub9                      23.84       0.00       0.00       1.39      20.42       0.76      21.18        0.10    23.95   0.889
  sub10                     23.84       0.00       0.00       1.24      20.63       0.67      21.30        0.23    53.40   0.894
  sub11                     23.84       0.00       0.00       1.22      20.65       0.69      21.34        0.25    59.71   0.895
  sub12                     23.84       0.00       0.00       1.98      19.55       1.11      20.66        0.18    46.17   0.867
  sub14                     23.84       0.00       0.00       1.39      20.42       0.76      21.18        0.20    47.08   0.888
  sub15                     23.84       0.00       0.00       5.16      15.70       1.99      17.70        0.30    64.58   0.742
  sub16                     23.84       0.00       0.00       5.46      15.05       2.40      17.45        0.18    41.69   0.732
  sub17                     23.84       0.00       0.00       5.32      15.27       2.31      17.58        0.15    34.22   0.738
  sub22                     23.84       0.00       0.00       7.63      12.80       2.62      15.42        0.97   202.91   0.647
  sub23                     23.84       0.00       0.00       6.37      14.15       2.45      16.60        0.79   171.10   0.696
  sub60                     23.84       0.00       0.00       2.46      17.68       0.40      18.08        5.48   635.50   0.759
  sub61                     23.84       0.00       0.00       3.48      17.44       0.57      18.00        5.55   687.97   0.755
  sub62                     23.84       0.00       0.00       1.52      19.11       0.39      19.50        5.99   726.55   0.818
  sub63                     23.84       0.00       0.00       6.22      15.11       0.70      15.81        4.78   606.27   0.663
  sub64                     23.84       0.00       0.00       3.15      17.01       0.42      17.43        5.30   611.50   0.731
  sub65                     23.84       0.00       0.00       2.70      17.34       0.40      17.73        5.45   625.37   0.744
  sub66                     23.84       0.00       0.00       6.42      14.44       0.49      14.93        4.58   541.58   0.626
  sub67                     23.84       0.00       0.00       1.46      19.71       0.45      20.16        6.22   787.40   0.846
  sub68                     23.84       0.00       0.00       2.78      18.22       0.56      18.78        5.78   724.10   0.788
  sub69                     23.84       0.00       0.00       2.86      18.50       0.72      19.22        4.49   586.55   0.806
  sub70                     23.84      19.62       0.00       9.95      26.14       3.78      29.92        6.85   801.71   0.689
  sub71                     23.84       0.00       0.00       1.54      18.81       0.36      19.18        4.53   536.91   0.805
  sub72                     23.84       0.00       0.00       1.45      16.32       0.22      16.55        3.37   330.66   0.694
  sub73                     23.84      29.13       0.00       9.95      31.58       5.28      36.86        8.66   884.85   0.696
  sub74                     23.84       0.00       0.00      17.30       5.48       0.57       6.05        2.42   323.16   0.254
  
  
  ******************
  Node Depth Summary
  ******************
  
  ---------------------------------------------------------------------------------
                                 Average  Maximum  Maximum  Time of Max    Reported
                                   Depth    Depth      HGL   Occurrence   Max Depth
  Node                 Type       Meters   Meters   Meters  days hr:min      Meters
  ---------------------------------------------------------------------------------
  WS02001211           JUNCTION     0.72     0.83     5.67     0  01:54        0.83
  WS02001212           JUNCTION     0.45     0.56     5.62     0  01:54        0.56
  WS02001213           JUNCTION     0.69     0.83     5.59     0  01:53        0.83
  WS02003069           JUNCTION     0.52     0.69     5.27     0  01:53        0.69
  WS02003072           JUNCTION     0.58     0.73     5.11     0  01:54        0.73
  WS02003073           JUNCTION     0.36     0.46     4.52     0  01:54        0.46
  WS02003060           JUNCTION     0.46     0.61     5.54     0  01:52        0.61
  WS02003066           JUNCTION     0.27     0.37     5.92     0  01:40        0.37
  WS02003059           JUNCTION     0.75     0.89     5.57     0  01:53        0.89
  WS02003067           JUNCTION     0.64     0.80     6.12     0  01:39        0.80
  WS02004401           JUNCTION     0.81     1.28     7.28     0  01:33        1.17
  WS02004402           JUNCTION     0.83     1.25     7.21     0  01:33        1.16
  WS02004403           JUNCTION     0.85     1.23     7.16     0  01:33        1.15
  WS02004404           JUNCTION     0.92     1.27     7.12     0  01:33        1.20
  WS02004406           JUNCTION     0.91     1.23     7.06     0  01:33        1.13
  WS02004409           JUNCTION     0.61     0.90     6.67     0  01:39        0.90
  WS02004410           JUNCTION     0.63     0.89     6.61     0  01:39        0.89
  WS02004411           JUNCTION     0.63     0.88     6.56     0  01:39        0.88
  WS02004412           JUNCTION     0.64     0.86     6.50     0  01:39        0.86
  WS02004413           JUNCTION     0.79     1.00     6.47     0  01:40        1.00
  WS02004405           JUNCTION     0.91     1.24     7.09     0  01:33        1.17
  WS02006109           JUNCTION     0.91     1.37     7.98     0  01:36        1.35
  WS02006110           JUNCTION     0.87     1.20     7.78     0  01:36        1.20
  WS02006111           JUNCTION     0.32     0.74     7.44     0  01:36        0.74
  WS02006112           JUNCTION     1.01     1.47     7.36     0  01:35        1.46
  WS02006113           JUNCTION     0.43     0.71     7.60     0  01:36        0.71
  WS02006115           JUNCTION     0.72     1.18     7.32     0  01:33        1.14
  WS02006116           JUNCTION     0.79     1.32     7.36     0  01:33        1.19
  WS02006230           JUNCTION     0.94     1.98     8.72     0  01:29        1.50
  WS02006231           JUNCTION     0.66     1.39     8.51     0  01:29        1.12
  WS02006232           JUNCTION     0.79     1.31     8.35     0  01:29        1.21
  WS02006234           JUNCTION     0.72     1.34     8.50     0  01:29        1.09
  WS02006235           JUNCTION     0.75     1.21     8.37     0  01:29        1.09
  WS02006238           JUNCTION     0.77     1.43     8.58     0  01:29        1.11
  WS02006240           JUNCTION     0.67     1.33     8.62     0  01:29        0.97
  WS02006242           JUNCTION     0.73     1.55     8.82     0  01:30        1.00
  WS02006243           JUNCTION     0.61     1.48     8.90     0  01:32        0.86
  WS02006245           JUNCTION     0.58     1.10     8.59     0  01:32        0.80
  WS02006247           JUNCTION     0.59     1.26     8.76     0  01:33        0.80
  WS02006248           JUNCTION     0.53     0.72     8.31     0  01:50        0.72
  WS02006249           JUNCTION     0.54     0.72     8.32     0  01:50        0.72
  WS02006239           JUNCTION     0.73     2.03     9.24     0  01:29        1.05
  WS02006251           JUNCTION     0.55     0.83     8.50     0  01:50        0.83
  WS02006252           JUNCTION     0.45     0.59     8.84     0  05:05        0.59
  WS02006253           JUNCTION     0.58     0.86     8.51     0  01:50        0.86
  WS02006256           JUNCTION     1.14     2.35     9.28     0  00:00        1.24
  WS02004138           JUNCTION     0.17     0.20     7.45     0  00:00        0.19
  WS02004407           JUNCTION     0.27     0.38     6.69     0  01:37        0.38
  WS02006228           JUNCTION     0.95     1.50     8.15     0  01:35        1.49
  WS02006229           JUNCTION     0.94     1.55     8.24     0  01:36        1.55
  WS02006280           JUNCTION     0.10     0.29     8.56     0  01:36        0.29
  WS02006284           JUNCTION     0.42     0.68     9.08     0  01:36        0.68
  WS02006287           JUNCTION     0.15     0.43     9.38     0  01:35        0.43
  WSF200               JUNCTION     0.28     0.42     5.65     0  01:43        0.42
  HS02004901           JUNCTION     0.17     0.40    10.23     0  01:33        0.40
  HS02004881           JUNCTION     0.02     0.06     9.09     0  01:36        0.06
  HS02004876           JUNCTION     0.06     0.18     9.21     0  01:36        0.18
  HS02004870           JUNCTION     0.03     0.11     9.39     0  01:36        0.11
  HS02004862           JUNCTION     0.04     0.12     9.50     0  01:37        0.12
  HS02004856           JUNCTION     0.09     0.16     9.59     0  01:37        0.16
  HS02004852           JUNCTION     0.02     0.09     9.60     0  01:37        0.09
  HS02004848           JUNCTION     0.02     0.08     9.68     0  01:37        0.08
  HS02004842           JUNCTION     0.35     0.41     9.68     0  01:37        0.41
  HS02004837           JUNCTION     0.04     0.10     9.68     0  01:37        0.10
  HS02004830           JUNCTION     0.05     0.13     9.60     0  01:36        0.13
  HS02004824           JUNCTION     0.04     0.17     9.57     0  01:35        0.17
  HS02004817           JUNCTION     0.49     0.74     9.58     0  01:36        0.73
  HS02004807           JUNCTION     0.17     0.41     9.58     0  01:36        0.40
  HS02004802           JUNCTION     0.21     0.44     9.56     0  01:36        0.44
  HS02004799           JUNCTION     0.18     0.51     9.72     0  01:34        0.51
  HS02004792           JUNCTION     0.07     0.24     9.76     0  01:33        0.24
  HS02004788           JUNCTION     0.05     0.17    10.07     0  01:34        0.17
  HS02004785           JUNCTION     0.08     0.27    10.17     0  01:33        0.27
  HS02004777           JUNCTION     0.19     0.41    10.21     0  01:33        0.41
  HS02004770           JUNCTION     0.16     0.39    10.22     0  01:33        0.39
  HS02004480           JUNCTION     0.13     0.42     9.66     0  01:34        0.42
  HS02004479           JUNCTION     0.17     0.46     9.66     0  01:34        0.46
  HS02004478           JUNCTION     0.10     0.32     9.54     0  01:35        0.32
  YS02001745           JUNCTION     0.82     1.03     8.55     0  03:01        1.03
  YS02001748           JUNCTION     1.24     2.27     9.35     0  01:32        1.45
  YS02001751           JUNCTION     1.42     2.15     9.03     0  01:32        1.62
  YS02001754           JUNCTION     1.68     2.08     8.69     0  01:32        1.87
  YS02001762           JUNCTION     1.88     2.06     8.46     0  03:01        2.06
  YS02001765           JUNCTION     1.83     2.01     8.46     0  03:01        2.01
  YS02001767           JUNCTION     1.79     1.96     8.45     0  03:01        1.96
  YS02001770           JUNCTION     1.79     1.95     8.44     0  01:31        1.95
  YS02001774           JUNCTION     1.85     2.01     8.43     0  01:32        1.99
  YS02001779           JUNCTION     1.58     1.68     8.37     0  01:30        1.68
  YS02001882           JUNCTION     0.88     1.66     8.38     0  01:37        1.63
  YS02001884           JUNCTION     0.98     1.75     8.37     0  01:37        1.73
  YS02001759           JUNCTION     1.91     2.10     8.47     0  03:01        2.10
  YS02001887           JUNCTION     1.06     1.82     8.36     0  01:59        1.81
  YS02001890           JUNCTION     1.08     1.81     8.32     0  01:37        1.81
  YS02001898           JUNCTION     0.84     1.58     8.31     0  01:37        1.56
  YS02001901           JUNCTION     0.96     1.68     8.29     0  01:37        1.67
  YS02001904           JUNCTION     0.93     1.65     8.28     0  01:37        1.63
  YS02001907           JUNCTION     1.26     1.96     8.25     0  01:37        1.96
  YS02001910           JUNCTION     1.06     1.87     8.37     0  01:37        1.79
  YS02001915           JUNCTION     0.86     1.90     8.62     0  01:35        1.62
  YS02001918           JUNCTION     0.59     1.55     8.62     0  01:37        1.32
  YS02001619           JUNCTION     1.37     1.61     8.54     0  01:31        1.50
  YS02001629           JUNCTION     1.73     1.85     8.40     0  01:31        1.85
  YS02001641           JUNCTION     1.82     1.95     8.39     0  01:33        1.95
  YS02001644           JUNCTION     1.82     1.92     8.35     0  01:32        1.92
  YS02001652           JUNCTION     1.69     2.16     8.76     0  01:33        1.94
  YS02001655           JUNCTION     1.45     2.20     9.05     0  01:32        1.80
  YS02001920           JUNCTION     0.68     1.68     8.69     0  01:39        1.41
  YS02001923           JUNCTION     0.49     1.49     8.75     0  01:39        1.18
  YS02001926           JUNCTION     0.48     1.27     8.72     0  01:39        1.25
  YS02001929           JUNCTION     0.31     0.90     8.60     0  01:39        0.86
  YS02001658           JUNCTION     1.17     2.30     9.44     0  01:32        1.67
  YS02001661           JUNCTION     0.93     2.46     9.86     0  01:33        1.58
  YS02001664           JUNCTION     0.43     0.70     8.62     0  01:33        0.68
  YS02001622           JUNCTION     1.39     1.62     8.52     0  01:31        1.51
  YS02001633           JUNCTION     1.82     1.97     8.42     0  01:33        1.97
  YS02001649           JUNCTION     1.88     2.05     8.44     0  01:32        2.05
  YS02001757           JUNCTION     2.01     2.21     8.47     0  01:32        2.20
  YS02001895           JUNCTION     0.84     1.57     8.32     0  01:37        1.56
  YS02001625           JUNCTION     1.68     1.78     8.38     0  01:31        1.78
  YS02163301           JUNCTION     1.76     1.90     8.42     0  01:31        1.90
  YS02163601           JUNCTION     1.87     2.02     8.42     0  01:33        2.02
  YS02164001           JUNCTION     1.81     1.95     8.41     0  01:33        1.95
  YS02001647           JUNCTION     1.66     1.84     8.45     0  01:32        1.79
  YSB1154              JUNCTION     0.31     0.61     9.67     0  01:34        0.61
  YSB6556              JUNCTION     0.20     0.50     9.67     0  01:34        0.50
  YSB1174              JUNCTION     0.26     0.56     9.67     0  01:34        0.56
  YSB1171              JUNCTION     0.46     0.76     9.67     0  01:34        0.76
  YS02006553           JUNCTION     1.26     2.15     8.44     0  01:41        1.97
  YS02006561           JUNCTION     0.55     1.75     8.41     0  01:41        1.09
  YS02006556           JUNCTION     1.23     2.36     8.67     0  01:41        1.94
  YS02006558           JUNCTION     1.27     2.49     8.75     0  01:41        1.99
  YS02001783           JUNCTION     0.83     2.27     8.42     0  01:41        1.48
  YS02001784           JUNCTION     0.82     2.29     8.36     0  01:41        1.43
  YS02001786           JUNCTION     0.73     2.23     8.26     0  01:41        1.27
  YS02001788           JUNCTION     0.63     2.28     8.26     0  01:41        1.14
  YS02001790           JUNCTION     0.77     1.96     7.60     0  01:41        1.29
  YS02001791           JUNCTION     0.74     1.86     7.33     0  01:41        1.27
  YS02001793           JUNCTION     1.03     1.88     6.72     0  01:41        1.80
  WS02004139           JUNCTION     0.67     0.78     5.69     0  01:55        0.78
  WSC                  OUTFALL      0.36     0.46     1.13     0  01:55        0.46
  3                    OUTFALL      0.16     0.24     6.24     0  03:02        0.24
  4                    OUTFALL      0.08     0.22     7.22     0  01:50        0.22
  5                    OUTFALL      0.00     0.00     5.00     0  00:00        0.00
  JK-storage           STORAGE      3.66     5.80     6.60     0  01:41        5.80
  CC-storage           STORAGE      1.21     1.45     8.45     0  02:41        1.45
  XR-storage           STORAGE      7.13     7.72     5.72     0  01:58        7.72
  
  
  *******************
  Node Inflow Summary
  *******************
  
  -------------------------------------------------------------------------------------------------
                                  Maximum  Maximum                  Lateral       Total        Flow
                                  Lateral    Total  Time of Max      Inflow      Inflow     Balance
                                   Inflow   Inflow   Occurrence      Volume      Volume       Error
  Node                 Type           LPS      LPS  days hr:min    10^6 ltr    10^6 ltr     Percent
  -------------------------------------------------------------------------------------------------
  WS02001211           JUNCTION      7.35   388.57     0  01:59       0.207        8.66       0.473
  WS02001212           JUNCTION      0.00   389.58     0  02:00           0        8.62       0.285
  WS02001213           JUNCTION      0.00   390.42     0  02:00           0        8.59       0.342
  WS02003069           JUNCTION      0.32  1240.04     0  01:53     0.00902        20.3       0.187
  WS02003072           JUNCTION      0.00  1239.98     0  01:53           0        20.3       0.219
  WS02003073           JUNCTION      1.82  1241.92     0  01:54      0.0514        20.3       0.254
  WS02003060           JUNCTION     16.53  1239.60     0  01:52       0.466        20.4       0.175
  WS02003066           JUNCTION      0.00   866.27     0  01:40           0        11.4       0.046
  WS02003059           JUNCTION      0.00   391.38     0  02:00           0        8.56       0.487
  WS02003067           JUNCTION      0.00   866.19     0  01:40           0        11.4       0.091
  WS02004401           JUNCTION      0.00   871.17     0  01:36           0        11.6       0.206
  WS02004402           JUNCTION      0.00   871.26     0  01:37           0        11.6       0.192
  WS02004403           JUNCTION      0.00   871.34     0  01:37           0        11.6       0.173
  WS02004404           JUNCTION      0.16   871.53     0  01:37     0.00457        11.6       0.127
  WS02004406           JUNCTION      0.00   871.69     0  01:37           0        11.6       0.309
  WS02004409           JUNCTION      0.00   871.26     0  01:37           0        11.5       0.172
  WS02004410           JUNCTION      0.00   866.79     0  01:38           0        11.5       0.191
  WS02004411           JUNCTION      0.00   866.14     0  01:39           0        11.5       0.193
  WS02004412           JUNCTION      0.00   866.07     0  01:39           0        11.4       0.204
  WS02004413           JUNCTION      0.00   866.29     0  01:39           0        11.4       0.299
  WS02004405           JUNCTION      0.04   871.58     0  01:37     0.00107        11.6       0.192
  WS02006109           JUNCTION      1.23   843.36     0  01:34      0.0347        11.6       0.193
  WS02006110           JUNCTION      0.00   843.29     0  01:34           0        11.6       0.186
  WS02006111           JUNCTION      0.00   840.96     0  01:32           0        11.6       0.043
  WS02006112           JUNCTION     34.22   872.12     0  01:36       0.151        11.7       0.257
  WS02006113           JUNCTION      0.00   843.37     0  01:34           0        11.6       0.105
  WS02006115           JUNCTION      0.00   872.05     0  01:36           0        11.7       0.206
  WS02006116           JUNCTION      0.00   871.26     0  01:36           0        11.7       0.178
  WS02006230           JUNCTION     10.28   403.10     0  05:51        0.29        7.58       0.222
  WS02006231           JUNCTION      0.00   392.96     0  05:50           0        7.28       0.162
  WS02006232           JUNCTION      0.00   392.98     0  05:50           0        7.28       0.242
  WS02006234           JUNCTION      0.00   393.06     0  05:50           0        7.28       0.152
  WS02006235           JUNCTION      0.00   393.05     0  05:50           0        7.42       0.148
  WS02006238           JUNCTION      0.00   342.94     0  04:00           0        5.63       0.161
  WS02006240           JUNCTION      0.00   337.88     0  04:00           0        5.61       0.273
  WS02006242           JUNCTION      0.00   333.99     0  04:01           0        5.62       0.340
  WS02006243           JUNCTION      0.00   330.11     0  04:01           0        5.63       0.271
  WS02006245           JUNCTION      0.00   329.26     0  04:01           0        5.64       0.238
  WS02006247           JUNCTION      0.00   329.59     0  04:01           0        5.65       0.192
  WS02006248           JUNCTION      0.00   332.36     0  07:30           0        5.66       0.148
  WS02006249           JUNCTION      0.00   544.44     0  01:50           0        7.79       0.181
  WS02006239           JUNCTION      0.00   340.81     0  04:00           0        5.62       0.258
  WS02006251           JUNCTION      0.08   545.22     0  01:50     0.00217        7.82       0.180
  WS02006252           JUNCTION      0.00   400.00     0  02:10           0        6.98       0.007
  WS02006253           JUNCTION      4.74   178.63     0  01:36      0.0174        0.85       0.923
  WS02006256           JUNCTION      0.00   605.06     0  03:02           0        10.2       0.027
  WS02004138           JUNCTION      0.00   380.00     0  00:00           0        8.49       0.074
  WS02004407           JUNCTION      0.00   872.20     0  01:36           0        11.5       0.077
  WS02006228           JUNCTION      0.00   842.06     0  01:35           0        11.6       0.144
  WS02006229           JUNCTION      0.00   848.95     0  01:34           0        11.7       0.123
  WS02006280           JUNCTION      0.00   821.20     0  01:36           0        4.12       0.004
  WS02006284           JUNCTION      0.10   821.15     0  01:36      0.0027        4.12       0.024
  WS02006287           JUNCTION      0.00   821.00     0  01:36           0        4.12       0.018
  WSF200               JUNCTION      0.00   866.16     0  01:40           0        11.4       0.046
  HS02004901           JUNCTION     41.69    41.69     0  01:31       0.183       0.183       0.972
  HS02004881           JUNCTION     17.57   174.51     0  01:36      0.0714       0.818       0.072
  HS02004876           JUNCTION     30.53   157.86     0  01:36       0.138       0.747       0.075
  HS02004870           JUNCTION     32.08   127.64     0  01:36       0.135       0.609       0.018
  HS02004862           JUNCTION     28.49    96.84     0  01:37       0.155       0.474       0.037
  HS02004856           JUNCTION     23.95    68.40     0  01:36       0.102        0.32       0.455
  HS02004852           JUNCTION      0.00    45.39     0  01:37           0       0.218       0.028
  HS02004848           JUNCTION     61.76    61.76     0  01:40       0.354       0.354       0.013
  HS02004842           JUNCTION      0.00    18.52     0  01:51           0       0.149       9.567
  HS02004837           JUNCTION     59.75    74.34     0  01:37       0.414        0.55       0.147
  HS02004830           JUNCTION      0.15    74.45     0  01:37     0.00423        0.54       0.229
  HS02004824           JUNCTION     72.88   147.19     0  01:40        0.43       0.969       0.056
  HS02004817           JUNCTION      0.60   150.26     0  01:41      0.0169       0.985       1.722
  HS02004807           JUNCTION     59.71   204.78     0  01:38       0.248        1.22       0.360
  HS02004802           JUNCTION      0.00   204.80     0  01:39           0        1.22       0.326
  HS02004799           JUNCTION     47.08   525.51     0  01:33       0.202         2.5       0.119
  HS02004792           JUNCTION    203.19   478.62     0  01:33       0.982         2.3       0.017
  HS02004788           JUNCTION     66.25   277.11     0  01:34       0.351        1.32       0.029
  HS02004785           JUNCTION      0.15   210.94     0  01:33     0.00423       0.971       0.053
  HS02004777           JUNCTION      0.03   211.16     0  01:32    0.000846       0.971       0.540
  HS02004770           JUNCTION    171.10   212.05     0  01:32       0.791       0.972       0.316
  HS02004480           JUNCTION      0.00   623.60     0  01:34           0        2.92       0.035
  HS02004479           JUNCTION      0.00    98.35     0  01:34           0       0.432       0.172
  HS02004478           JUNCTION      0.00   820.99     0  01:35           0        4.12       0.008
  YS02001745           JUNCTION    635.50   635.50     0  03:01        5.48        5.48       0.196
  YS02001748           JUNCTION      0.04   636.32     0  03:01     0.00127        5.47       0.415
  YS02001751           JUNCTION      0.01   636.36     0  03:01     0.00031        5.45       0.441
  YS02001754           JUNCTION      0.26   636.68     0  03:01     0.00733        5.44       0.446
  YS02001762           JUNCTION      0.00   392.53     0  01:41           0        2.92       0.722
  YS02001765           JUNCTION      0.00   392.54     0  01:41           0        2.92       0.838
  YS02001767           JUNCTION      0.54   392.42     0  01:41      0.0151        2.94       1.227
  YS02001770           JUNCTION    726.70  1016.61     0  03:01           6        7.29       0.428
  YS02001774           JUNCTION      0.00   851.17     0  03:07           0        5.49       0.454
  YS02001779           JUNCTION      0.01   851.17     0  03:07    0.000141        5.46       0.280
  YS02001882           JUNCTION      0.00    45.01     0  01:34           0      0.0312       7.820
  YS02001884           JUNCTION      0.00    60.94     0  01:32           0      0.0678      10.775
  YS02001759           JUNCTION    688.01   890.75     0  01:47        5.55        7.15       0.317
  YS02001887           JUNCTION    787.85   787.85     0  03:01        6.23        6.26       0.145
  YS02001890           JUNCTION      0.00   787.90     0  03:01           0        6.21       0.156
  YS02001898           JUNCTION      0.00   569.82     0  01:38           0        5.24       0.057
  YS02001901           JUNCTION      0.00   570.25     0  01:38           0        5.24       0.140
  YS02001904           JUNCTION      0.00   570.57     0  01:38           0        5.24       0.121
  YS02001907           JUNCTION      0.00  1384.52     0  03:01           0        13.2       0.189
  YS02001910           JUNCTION      0.00   868.06     0  03:01           0        7.96       0.163
  YS02001915           JUNCTION    536.93   868.02     0  03:01        4.53        8.02       0.078
  YS02001918           JUNCTION      0.00   356.52     0  01:39           0        3.52       0.051
  YS02001619           JUNCTION    541.58   541.58     0  03:01        4.58        4.58       0.266
  YS02001629           JUNCTION      0.00   385.03     0  01:31           0        1.87       1.518
  YS02001641           JUNCTION      0.00   452.22     0  01:32           0        5.95       0.352
  YS02001644           JUNCTION    611.54  1882.09     0  03:01         5.3        17.2       0.149
  YS02001652           JUNCTION      0.00   607.55     0  03:01           0        4.73       0.477
  YS02001655           JUNCTION      0.15   607.54     0  03:01     0.00434        4.76       0.533
  YS02001920           JUNCTION      2.87   356.44     0  01:39      0.0809         3.5       0.098
  YS02001923           JUNCTION      0.04   333.56     0  03:01     0.00106         3.4       0.042
  YS02001926           JUNCTION      0.05   330.50     0  03:01     0.00147        3.38       0.105
  YS02001929           JUNCTION    330.66   330.66     0  03:01        3.37        3.37       0.022
  YS02001658           JUNCTION      0.00   607.37     0  03:01           0        4.78       0.463
  YS02001661           JUNCTION      0.00   805.52     0  01:47           0        5.41       0.100
  YS02001664           JUNCTION    606.27   606.27     0  03:01        4.78        5.42       0.085
  YS02001622           JUNCTION      0.00   541.61     0  03:01           0        4.57       0.693
  YS02001633           JUNCTION    625.57   625.57     0  03:01        5.46        6.65       0.481
  YS02001649           JUNCTION      0.00  1222.79     0  03:01           0        9.18       0.400
  YS02001757           JUNCTION      0.00  2169.71     0  01:46           0        13.7       0.675
  YS02001895           JUNCTION      0.00   569.49     0  01:38           0        5.25       0.115
  YS02001625           JUNCTION      0.00   743.64     0  03:01           0        5.19       0.772
  YS02163301           JUNCTION      0.00   314.67     0  01:30           0        1.87       1.287
  YS02163601           JUNCTION      0.11   452.26     0  01:32      0.0031        5.95       0.504
  YS02164001           JUNCTION      0.00   452.42     0  01:32           0        5.94       0.334
  YS02001647           JUNCTION      0.00   846.70     0  02:59           0        7.46       0.379
  YSB1154              JUNCTION     54.28    54.28     0  01:34       0.243       0.243       0.595
  YSB6556              JUNCTION      0.00    54.37     0  01:35           0       0.244       0.519
  YSB1174              JUNCTION     46.17    46.17     0  01:30        0.18       0.181       0.712
  YSB1171              JUNCTION      0.00    98.47     0  01:34           0       0.431       1.496
  YS02006553           JUNCTION      0.00   699.73     0  03:50           0        7.69       0.207
  YS02006561           JUNCTION      0.00  1146.16     0  01:41           0        13.4       0.006
  YS02006556           JUNCTION      0.00   699.75     0  03:50           0         7.7       0.150
  YS02006558           JUNCTION    724.98  1146.36     0  01:41         5.8        13.5       0.040
  YS02001783           JUNCTION      0.00  1146.01     0  01:41           0        13.4       0.021
  YS02001784           JUNCTION      1.06  1147.14     0  01:41      0.0299        13.4       0.033
  YS02001786           JUNCTION      0.06  1147.08     0  01:41     0.00159        13.4       0.030
  YS02001788           JUNCTION      0.07  1148.11     0  01:41       0.002        13.4       0.017
  YS02001790           JUNCTION      0.15  1157.48     0  01:39     0.00437        13.4       0.024
  YS02001791           JUNCTION      0.00  1261.27     0  01:40           0        13.4       0.008
  YS02001793           JUNCTION      0.00  1220.87     0  01:40           0        13.4       0.002
  WS02004139           JUNCTION      0.32   393.99     0  00:00     0.00905         8.5       0.539
  WSC                  OUTFALL       0.00  1242.13     0  01:55           0        20.2       0.000
  3                    OUTFALL       0.00   605.07     0  03:02           0        8.34       0.000
  4                    OUTFALL       0.00   371.49     0  01:50           0        2.12       0.000
  5                    OUTFALL       0.00     0.00     0  00:00           0           0       0.000 ltr
  JK-storage           STORAGE       0.00  1167.22     0  01:39           0        13.6      -6.682
  CC-storage           STORAGE       0.00  2169.73     0  01:46           0        10.5       0.569
  XR-storage           STORAGE    1408.02  1408.02     0  03:01        16.7        17.3      -0.000
  
  
  **********************
  Node Surcharge Summary
  **********************
  
  Surcharging occurs when water rises above the top of the highest conduit.
  ---------------------------------------------------------------------
                                               Max. Height   Min. Depth
                                   Hours       Above Crown    Below Rim
  Node                 Type      Surcharged         Meters       Meters
  ---------------------------------------------------------------------
  WS02004401           JUNCTION        1.52          0.277        1.383
  WS02004402           JUNCTION        1.66          0.247        1.493
  WS02004403           JUNCTION        1.68          0.233        1.797
  WS02004404           JUNCTION        1.78          0.272        2.508
  WS02004406           JUNCTION        1.74          0.230        2.220
  WS02004405           JUNCTION        1.76          0.241        2.559
  WS02006109           JUNCTION        4.76          0.546        1.274
  WS02006110           JUNCTION        1.94          0.288        1.562
  WS02006112           JUNCTION        2.05          0.474        1.206
  WS02006115           JUNCTION        0.80          0.173        2.077
  WS02006116           JUNCTION        0.89          0.260        2.030
  WS02006230           JUNCTION        1.77          0.900        0.670
  WS02006231           JUNCTION        1.84          0.677        0.853
  WS02006232           JUNCTION        5.00          0.608        0.872
  WS02006234           JUNCTION        1.99          0.624        0.616
  WS02006235           JUNCTION        4.10          0.498        0.792
  WS02006238           JUNCTION        4.47          0.712        0.718
  WS02006240           JUNCTION        1.96          0.621        0.769
  WS02006242           JUNCTION        3.99          0.820        0.000
  WS02006243           JUNCTION        1.79          0.770        0.000
  WS02006245           JUNCTION        1.20          0.395        0.455
  WS02006247           JUNCTION        1.19          0.552        0.208
  WS02006248           JUNCTION        0.02          0.004        0.376
  WS02006239           JUNCTION        2.61          1.290        0.000
  WS02006252           JUNCTION        4.21          0.193        0.907
  WS02006256           JUNCTION        0.01          1.050        0.000
  WS02006228           JUNCTION        4.66          0.673        1.527
  HS02004817           JUNCTION        0.32          0.036        1.704
  YS02001745           JUNCTION        0.46          0.029        1.321
  YS02001748           JUNCTION        6.28          1.190        0.000
  YS02001751           JUNCTION        6.30          1.149        0.051
  YS02001754           JUNCTION        6.31          1.034        0.116
  YS02001762           JUNCTION        6.34          1.063        0.087
  YS02001765           JUNCTION        6.33          1.009        0.091
  YS02001767           JUNCTION        6.33          0.965        0.065
  YS02001770           JUNCTION        6.33          0.920        0.000
  YS02001774           JUNCTION        6.34          1.006        0.044
  YS02001779           JUNCTION        6.31          0.680        0.000
  YS02001882           JUNCTION        2.57          0.663        0.167
  YS02001884           JUNCTION        2.60          0.690        0.180
  YS02001759           JUNCTION        6.34          1.104        0.106
  YS02001887           JUNCTION        2.67          0.769        0.181
  YS02001890           JUNCTION        2.70          0.760        0.000
  YS02001898           JUNCTION        2.53          0.546        0.194
  YS02001901           JUNCTION        2.64          0.684        0.186
  YS02001904           JUNCTION        2.62          0.647        0.203
  YS02001907           JUNCTION        3.02          0.950        0.000
  YS02001910           JUNCTION        2.74          0.867        0.233
  YS02001915           JUNCTION        2.56          0.905        0.095
  YS02001918           JUNCTION        2.33          0.551        0.259
  YS02001619           JUNCTION        6.31          0.610        0.000
  YS02001629           JUNCTION        6.31          0.470        0.000
  YS02001641           JUNCTION        6.33          0.949        0.151
  YS02001644           JUNCTION        6.34          0.920        0.000
  YS02001652           JUNCTION        6.31          1.130        0.000
  YS02001655           JUNCTION        6.30          1.200        0.000
  YS02001920           JUNCTION        2.37          0.682        0.458
  YS02001923           JUNCTION        0.01          0.281        0.539
  YS02001926           JUNCTION        0.01          0.271        0.629
  YS02001658           JUNCTION        6.29          1.300        0.000
  YS02001661           JUNCTION        1.07          1.390        0.000
  YS02001622           JUNCTION        6.31          0.620        0.000
  YS02001633           JUNCTION        6.33          0.951        0.109
  YS02001649           JUNCTION        6.34          1.050        0.000
  YS02001757           JUNCTION        6.36          1.210        0.000
  YS02001895           JUNCTION        2.54          0.571        0.179
  YS02001625           JUNCTION        6.32          0.780        0.000
  YS02163301           JUNCTION        6.33          0.905        0.125
  YS02163601           JUNCTION        6.34          1.019        0.061
  YS02164001           JUNCTION        6.33          0.948        0.152
  YS02001647           JUNCTION        6.32          0.836        0.064
  YS02006553           JUNCTION        3.07          1.153        0.037
  YS02006561           JUNCTION        2.42          0.945        0.205
  YS02006556           JUNCTION        2.90          1.319        0.031
  YS02006558           JUNCTION        2.87          1.385        0.015
  YS02001783           JUNCTION        2.93          1.475        0.125
  YS02001784           JUNCTION        2.95          1.490        0.000
  YS02001786           JUNCTION        2.88          1.430        0.000
  YS02001788           JUNCTION        2.80          1.480        0.000
  YS02001790           JUNCTION        3.21          1.157        0.000
  YS02001791           JUNCTION        3.37          1.060        0.860
  YS02001793           JUNCTION        3.64          0.885        1.715
  
  
  *********************
  Node Flooding Summary
  *********************
  
  Flooding refers to all water that overflows a node, whether it ponds or not.
  --------------------------------------------------------------------------
                                                             Total   Maximum
                                 Maximum   Time of Max       Flood    Ponded
                        Hours       Rate    Occurrence      Volume     Depth
  Node                 Flooded       LPS   days hr:min    10^6 ltr    Meters
  --------------------------------------------------------------------------
  WS02006242              0.01    124.10      0  01:30       0.000     0.000
  WS02006243              0.01     37.38      0  01:32       0.000     0.000
  WS02006239              0.01     84.03      0  01:29       0.000     0.000
  WS02006256              0.01    406.11      0  00:00       0.001     0.000
  YS02001748              0.01    174.74      0  01:32       0.000     0.000
  YS02001770              0.53    165.43      0  03:01       0.138     0.000
  YS02001779              3.97    851.17      0  03:07       5.447     0.000
  YS02001890              1.65    271.50      0  03:01       0.959     0.000
  YS02001907              2.18   1136.85      0  03:01       5.494     0.000
  YS02001619              0.01    124.74      0  01:31       0.000     0.000
  YS02001629              0.01    372.64      0  01:31       0.004     0.000
  YS02001644              5.31   1882.08      0  03:01      15.763     0.000
  YS02001652              0.01     22.39      0  01:33       0.000     0.000
  YS02001655              0.01     31.19      0  01:32       0.000     0.000
  YS02001658              0.01    339.34      0  01:32       0.000     0.000
  YS02001661              0.01    177.60      0  01:33       0.000     0.000
  YS02001622              0.01     66.00      0  01:31       0.000     0.000
  YS02001649              0.79    376.09      0  03:01       0.620     0.000
  YS02001757              0.01     16.93      0  01:32       0.000     0.000
  YS02001625              2.92    743.60      0  03:01       3.934     0.000
  YS02001784              0.01      7.72      0  01:41       0.000     0.000
  YS02001786              0.01      6.62      0  01:41       0.000     0.000
  YS02001788              0.01    149.80      0  01:41       0.000     0.000
  YS02001790              0.01    202.38      0  01:41       0.000     0.000
  JK-storage              2.89    872.24      0  04:00       4.479     0.000
  XR-storage              4.63   1123.01      0  03:01       8.031     0.000
  
  
  **********************
  Storage Volume Summary
  **********************
  
  --------------------------------------------------------------------------------------------------
                         Average     Avg  Evap Exfil       Maximum     Max    Time of Max    Maximum
                          Volume    Pcnt  Pcnt  Pcnt        Volume    Pcnt     Occurrence    Outflow
  Storage Unit           1000 m3    Full  Loss  Loss       1000 m3    Full    days hr:min        LPS
  --------------------------------------------------------------------------------------------------
  JK-storage               0.184      63     0     0         0.291     100       0  01:41     600.00
  CC-storage               3.385      22     0     0         4.052      26       0  02:41     400.00
  XR-storage               0.856      92     0     0         0.926     100       0  01:58     380.00
  
  
  ***********************
  Outfall Loading Summary
  ***********************
  
  -----------------------------------------------------------
                         Flow       Avg       Max       Total
                         Freq      Flow      Flow      Volume
  Outfall Node           Pcnt       LPS       LPS    10^6 ltr
  -----------------------------------------------------------
  WSC                  100.00    795.96   1242.13      20.244
  3                     96.53    375.21    605.07       8.345
  4                     71.46    127.17    371.49       2.122
  5                      0.00      0.00      0.00       0.000
  -----------------------------------------------------------
  System                67.00   1298.34   2046.37      30.711
  
  
  ********************
  Link Flow Summary
  ********************
  
  -----------------------------------------------------------------------------
                                 Maximum  Time of Max   Maximum    Max/    Max/
                                  |Flow|   Occurrence   |Veloc|    Full    Full
  Link                 Type          LPS  days hr:min     m/sec    Flow   Depth
  -----------------------------------------------------------------------------
  WS02003066WSF200     CONDUIT    866.16     0  01:40      2.98    0.15    0.31
  WS02006287WS02006284 CONDUIT    821.05     0  01:36      2.53    0.38    0.43
  WS02006284WS02006280 CONDUIT    821.20     0  01:36      2.76    0.34    0.40
  WS02006280WS02006229 CONDUIT    821.23     0  01:36      4.43    0.18    0.33
  WS02006229WS02006228 CONDUIT    842.06     0  01:35      1.68    2.79    1.00
  WS02006256WS02006235 CONDUIT    177.52     0  00:01      2.73    1.88    1.00
  WS02006253WS02006251 CONDUIT    207.59     0  01:33      0.76    0.62    1.00
  WS02006252WS02006251 CONDUIT    400.40     0  06:39      3.19    1.47    1.00
  WS02006251WS02006249 CONDUIT    544.44     0  01:50      1.41    1.57    1.00
  WS02006249WS02006248 CONDUIT    332.36     0  07:30      1.08    1.82    1.00
  WS02006248WS02006247 CONDUIT    329.59     0  04:01      1.07    0.72    1.00
  WS02006247WS02006245 CONDUIT    329.26     0  04:01      1.03    2.61    1.00
  WS02006245WS02006243 CONDUIT    330.11     0  04:01      1.12    0.98    1.00
  WS02006243WS02006242 CONDUIT    333.99     0  04:01      0.89    0.71    1.00
  WS02006242WS02006240 CONDUIT    337.88     0  04:00      0.89    1.34    1.00
  WS02006240WS02006239 CONDUIT    340.81     0  04:00      0.92    1.07    1.00
  WS02006239WS02006238 CONDUIT    342.94     0  04:00      0.90    1.10    1.00
  WS02006238WS02006235 CONDUIT    344.15     0  04:00      1.32    0.77    1.00
  WS02006235WS02006234 CONDUIT    393.06     0  05:50      1.02    4.15    1.00
  WS02006234WS02006232 CONDUIT    392.98     0  05:50      1.17    0.79    1.00
  WS02006232WS02006231 CONDUIT    392.96     0  05:50      1.06    0.82    1.00
  WS02006231WS02006230 CONDUIT    392.82     0  05:51      1.32    5.96    1.00
  WS02006230WS02006229 CONDUIT    403.19     0  05:51      1.05    8.97    1.00
  WS02006228WS02006109 CONDUIT    842.13     0  01:34      1.68    3.68    1.00
  WS02006116WS02004401 CONDUIT    871.17     0  01:36      1.11    1.20    1.00
  WS02006115WS02006116 CONDUIT    871.26     0  01:36      1.11    1.12    1.00
  WS02006113WS02006111 CONDUIT    840.96     0  01:32      2.74    1.01    0.90
  WS02006112WS02006115 CONDUIT    872.05     0  01:36      1.11    0.51    1.00
  WS02006111WS02006112 CONDUIT    840.12     0  01:36      1.91    0.40    0.95
  WS02006110WS02006113 CONDUIT    843.37     0  01:34      1.81    0.77    0.94
  WS02006109WS02006110 CONDUIT    843.29     0  01:34      1.68    1.62    1.00
  WS02004411WS02004412 CONDUIT    866.07     0  01:39      1.24    1.23    0.87
  WS02004401WS02004402 CONDUIT    871.26     0  01:37      1.11    1.05    1.00
  WS02004413WS02003067 CONDUIT    866.19     0  01:40      1.46    0.37    0.71
  WS02004412WS02004413 CONDUIT    866.29     0  01:39      1.14    0.58    0.93
  WS02004410WS02004411 CONDUIT    866.14     0  01:39      1.21    1.18    0.89
  WS02004409WS02004410 CONDUIT    866.79     0  01:38      1.29    1.12    0.90
  WS02004407WS02004409 CONDUIT    871.26     0  01:37      1.85    0.31    0.64
  WS02004406WS02004407 CONDUIT    872.20     0  01:36      1.51    0.39    0.69
  WS02004405WS02004406 CONDUIT    871.69     0  01:37      1.11    1.72    1.00
  WS02004404WS02004405 CONDUIT    871.54     0  01:37      1.11    8.54    1.00
  WS02004403WS02004404 CONDUIT    871.37     0  01:37      1.11    0.63    1.00
  WS02004402WS02004403 CONDUIT    871.34     0  01:37      1.11    1.25    1.00
  WS02004139WS02001211 CONDUIT    381.22     0  01:59      0.90    0.48    0.63
  WS02004138WS02004139 CONDUIT    393.66     0  00:00      3.65    0.08    0.46
  WS02003067WS02003066 CONDUIT    866.27     0  01:40      1.58    0.28    0.49
  WS02001213WS02003059 CONDUIT    391.38     0  02:00      0.91    0.65    0.85
  WS02001212WS02001213 CONDUIT    390.42     0  02:00      1.32    0.60    0.53
  WS02001211WS02001212 CONDUIT    389.58     0  02:00      0.78    0.30    0.70
  WS02003072WS02003073 CONDUIT   1240.10     0  01:54      1.91    2.68    0.56
  WS02003069WS02003072 CONDUIT   1239.98     0  01:53      1.78    0.60    0.59
  WS02003060WS02003069 CONDUIT   1239.72     0  01:53      1.99    0.49    0.54
  WS02003059WS02003060 CONDUIT    392.57     0  01:59      0.95    0.26    0.75
  HS02004901HS02004770 CONDUIT     40.98     0  01:33      0.10    0.15    0.57
  HS02004876HS02004881 CONDUIT    157.88     0  01:36      1.33    1.68    0.17
  HS02004870HS02004876 CONDUIT    127.61     0  01:36      0.90    0.08    0.20
  HS02004842HS02004848 CONDUIT     18.52     0  01:51      0.08    0.01    0.35
  HS02004837HS02004842 CONDUIT     18.98     0  01:52      0.41    0.01    0.36
  HS02004830HS02004837 CONDUIT     74.30     0  01:37      0.68    0.07    0.16
  HS02004824HS02004830 CONDUIT     75.00     0  01:38      0.62    0.10    0.21
  HS02004817HS02004824 CONDUIT    149.66     0  01:41      0.35    0.07    0.62
  HS02004770HS02004777 CONDUIT    211.13     0  01:32      0.52    0.39    0.58
  HS02004799HS02004480 CONDUIT    525.37     0  01:34      1.14    0.66    0.66
  HS02004792HS02004799 CONDUIT    478.53     0  01:33      1.27    0.29    0.54
  HS02004788HS02004792 CONDUIT    277.00     0  01:34      1.34    0.18    0.30
  HS02004785HS02004788 CONDUIT    210.88     0  01:34      0.96    1.59    0.31
  HS02004777HS02004785 CONDUIT    210.79     0  01:33      0.62    0.26    0.49
  HS02004480HS02004478 CONDUIT    623.55     0  01:34      1.66    2.63    0.54
  HS02004479HS02004480 CONDUIT     98.64     0  01:35      0.34    0.10    0.63
  HS02004862HS02004870 CONDUIT     96.84     0  01:37      0.86    0.10    0.16
  HS02004848HS02004852 CONDUIT     45.39     0  01:37      0.56    0.05    0.12
  HS02004856HS02004862 CONDUIT     68.36     0  01:37      0.64    0.07    0.15
  HS02004852HS02004856 CONDUIT     45.48     0  01:38      0.37    0.05    0.18
  HS02004802HS02004478 CONDUIT    205.91     0  01:39      0.56    0.18    0.54
  HS02004478WS02006287 CONDUIT    821.00     0  01:36      2.26    0.23    0.40
  HS02004817HS02004807 CONDUIT    150.59     0  01:40      0.27    0.09    0.79
  HS02004807HS02004802 CONDUIT    204.80     0  01:39      0.50    0.39    0.59
  YS02001759YS02001757 CONDUIT    890.60     0  01:47      1.13    0.63    1.00
  YS02001762YS02001759 CONDUIT    392.45     0  01:41      0.50    0.45    1.00
  YS02001765YS02001762 CONDUIT    392.53     0  01:41      0.50    0.37    1.00
  YS02001770YS02001767 CONDUIT    391.89     0  01:41      0.50    1.55    1.00
  YS02001774YS02001770 CONDUIT    851.17     0  03:07      1.08    0.54    1.00
  YS02001779YS02001774 CONDUIT    851.17     0  03:07      1.08    0.43    1.00
  YS02001649YS02001757 CONDUIT    907.11     0  01:46      1.15    0.55    1.00
  YS02001767YS02001765 CONDUIT    392.54     0  01:41      0.50    0.49    1.00
  YS02006561YS02001783 CONDUIT   1146.01     0  01:41      2.28    0.59    1.00
  YS02001783YS02001784 CONDUIT   1146.08     0  01:41      2.28    1.58    1.00
  YS02001784YS02001785 CONDUIT   1147.03     0  01:41      2.28    2.67    1.00
  YS02001788YS02001790 CONDUIT   1157.33     0  01:39      2.71    0.85    1.00
  YS02001790YS02001791 CONDUIT   1261.27     0  01:40      3.39    1.37    1.00
  YS02001791YS02001793 CONDUIT   1220.87     0  01:40      6.60    0.52    1.00
  YS02001910YS02001907 CONDUIT    868.13     0  03:01      1.11    0.49    1.00
  YS02001786YS02001788 CONDUIT   1148.04     0  01:41      2.46    2.21    1.00
  YS02001915YS02001910 CONDUIT    868.06     0  03:01      1.11    0.43    1.00
  YS02001918YS02001915 CONDUIT    356.65     0  01:39      0.55    0.20    1.00
  YS02001923YS02001920 CONDUIT    353.57     0  01:39      0.88    0.16    1.00
  YS02001926YS02001923 CONDUIT    333.53     0  03:01      0.95    0.48    1.00
  YS02001929YS02001926 CONDUIT    330.45     0  03:01      1.03    0.16    0.95
  YS02001920YS02001918 CONDUIT    356.52     0  01:39      0.84    0.34    1.00
  YS02001629YS02163301 CONDUIT    297.96     0  01:30      0.38    0.37    1.00
  YS02001619YS02001622 CONDUIT    541.61     0  03:01      0.90    0.80    1.00
  YS02001622YS02001625 CONDUIT    541.69     0  03:01      0.69    0.29    1.00
  YS02001625YS02001629 CONDUIT    307.06     0  01:30      0.45    0.15    1.00
  YS02163301YS02001633 CONDUIT    314.67     0  01:30      0.40    0.30    1.00
  YS02163601YS02164001 CONDUIT    452.42     0  01:32      0.58    0.40    1.00
  YS02164001YS02001641 CONDUIT    452.22     0  01:32      0.58    0.62    1.00
  YS02001641YS02001644 CONDUIT    451.98     0  01:32      0.58    1.46    1.00
  YS02001647YS02001649 CONDUIT    846.70     0  02:59      1.08    0.45    1.00
  YS02006553YS02006556 CONDUIT    699.75     0  03:50      0.89    0.60    1.00
  YS02006556YS02006558 CONDUIT    699.81     0  03:50      0.89    0.55    1.00
  YSB6556YSB1171       CONDUIT     54.78     0  01:36      0.16    0.06    0.86
  YS02001907YS02006553 CONDUIT    699.73     0  03:50      0.78    0.82    1.00
  YS02006558YS02006561 CONDUIT   1146.16     0  01:41      4.05    2.53    1.00
  YS02001633YS02163601 CONDUIT    452.15     0  01:32      0.58    0.47    1.00
  YS02001644YS02001647 CONDUIT    846.70     0  02:58      1.08    0.50    1.00
  YS02001745YS02001748 CONDUIT    636.28     0  03:01      1.91    0.24    1.00
  YS02001748YS02001751 CONDUIT    636.35     0  03:01      1.45    0.32    1.00
  YS02001751YS02001754 CONDUIT    636.42     0  03:01      1.17    0.31    1.00
  YS02001754YS02001757 CONDUIT    636.72     0  03:01      0.81    0.26    1.00
  YS02001882YS02001884 CONDUIT     45.01     0  01:34      0.18    0.05    1.00
  YS02001884YS02001887 CONDUIT     60.94     0  01:32      0.14    0.08    1.00
  YS02001890YS02001895 CONDUIT    569.49     0  01:38      0.73    0.27    1.00
  YS02001895YS02001898 CONDUIT    569.82     0  01:38      0.73    0.99    1.00
  YS02001898YS02001901 CONDUIT    570.25     0  01:38      0.73    0.37    1.00
  YS02001901YS02001904 CONDUIT    570.57     0  01:38      0.73    0.88    1.00
  YS02001904YS02001907 CONDUIT    570.83     0  01:38      0.73    0.20    1.00
  YS02001887YS02001890 CONDUIT    787.90     0  03:01      1.00    1.35    1.00
  YS02001652YS02001649 CONDUIT    607.56     0  03:01      0.77    0.30    1.00
  YS02001655YS02001652 CONDUIT    607.55     0  03:01      1.26    0.30    1.00
  YS02001658YS02001655 CONDUIT    607.39     0  03:01      1.67    0.26    1.00
  YS02001661YS02001658 CONDUIT    607.37     0  03:01      2.02    0.24    1.00
  YS02001664YS02001661 CONDUIT    805.52     0  01:47      1.90    0.25    0.85
  YSB1154YSB6556       CONDUIT     54.37     0  01:35      0.17    0.10    0.79
  YSB1174YSB1171       CONDUIT     45.33     0  01:31      0.13    0.07    0.90
  YSB1171HS02004479    CONDUIT     98.35     0  01:34      0.54    0.07    0.73
  HS02004881HS02006253 CONDUIT    174.50     0  01:36      2.50    0.03    0.41
  YS02001793JiankangQianchi CONDUIT   1167.22     0  01:39     16.03    0.09    1.00
  YS02001757CaochengTiaoxuchi CONDUIT   2169.73     0  01:46      3.82    0.95    1.00
  WSF200WS02003060     CONDUIT    866.75     0  01:39      1.97    0.19    0.42
  1                    CONDUIT   1242.13     0  01:55      3.52    0.43    0.46
  2                    CONDUIT    371.49     0  01:50      6.67    0.89    0.74
  3                    CONDUIT    605.07     0  03:02     10.05    0.96    0.86
  4                    CONDUIT      0.00     0  00:00      0.00    0.00    0.00
  CC-Pump-1            PUMP       200.00     0  01:40              1.00
  CC-Pump-2            PUMP       200.00     0  02:10              1.00
  JK-Pump-1            PUMP       300.00     0  00:00              1.00
  JK-Pump-2            PUMP       300.00     0  00:00              1.00
  XR-Pump-1            PUMP        95.00     0  00:00              1.00
  XR-Pump-2            PUMP        95.00     0  00:00              1.00
  XR-Pump-3            PUMP        95.00     0  00:00              1.00
  XR-Pump-4            PUMP        95.00     0  00:00              1.00
  
  
  ***************************
  Flow Classification Summary
  ***************************
  
  -------------------------------------------------------------------------------------
                      Adjusted    ---------- Fraction of Time in Flow Class ---------- 
                       /Actual         Up    Down  Sub   Sup   Up    Down  Norm  Inlet 
  Conduit               Length    Dry  Dry   Dry   Crit  Crit  Crit  Crit  Ltd   Ctrl  
  -------------------------------------------------------------------------------------
  WS02003066WSF200        1.00   0.02  0.04  0.00  0.00  0.94  0.00  0.00  0.54  0.00
  WS02006287WS02006284    1.00   0.03  0.01  0.00  0.54  0.43  0.00  0.00  0.61  0.00
  WS02006284WS02006280    1.00   0.03  0.00  0.00  0.00  0.00  0.00  0.97  0.00  0.00
  WS02006280WS02006229    1.00   0.03  0.00  0.00  0.00  0.06  0.00  0.91  0.01  0.00
  WS02006229WS02006228    1.00   0.00  0.00  0.00  0.99  0.00  0.00  0.01  0.00  0.00
  WS02006256WS02006235    1.00   0.00  0.00  0.00  1.00  0.00  0.00  0.00  0.00  0.00
  WS02006253WS02006251    1.00   0.02  0.01  0.00  0.97  0.00  0.00  0.00  0.00  0.00
  WS02006252WS02006251    1.00   0.04  0.00  0.00  0.00  0.00  0.96  0.00  0.00  0.00
  WS02006251WS02006249    1.00   0.00  0.00  0.00  1.00  0.00  0.00  0.00  0.14  0.00
  WS02006249WS02006248    1.00   0.00  0.01  0.00  0.96  0.00  0.02  0.00  0.00  0.00
  WS02006248WS02006247    1.00   0.01  0.00  0.00  0.98  0.00  0.00  0.01  0.02  0.00
  WS02006247WS02006245    1.00   0.01  0.00  0.00  0.97  0.00  0.00  0.02  0.00  0.00
  WS02006245WS02006243    1.00   0.01  0.00  0.00  0.96  0.00  0.00  0.02  0.01  0.00
  WS02006243WS02006242    1.00   0.01  0.00  0.00  0.99  0.00  0.00  0.00  0.15  0.00
  WS02006242WS02006240    1.00   0.00  0.00  0.00  0.99  0.00  0.00  0.00  0.00  0.00
  WS02006240WS02006239    1.00   0.00  0.00  0.00  0.98  0.00  0.00  0.02  0.01  0.00
  WS02006239WS02006238    1.00   0.00  0.00  0.00  1.00  0.00  0.00  0.00  0.00  0.00
  WS02006238WS02006235    1.00   0.00  0.00  0.00  1.00  0.00  0.00  0.00  0.00  0.00
  WS02006235WS02006234    1.00   0.00  0.00  0.00  0.98  0.00  0.02  0.00  0.00  0.00
  WS02006234WS02006232    1.00   0.00  0.00  0.00  1.00  0.00  0.00  0.00  0.03  0.00
  WS02006232WS02006231    1.00   0.00  0.00  0.00  0.99  0.00  0.00  0.00  0.00  0.00
  WS02006231WS02006230    1.00   0.00  0.00  0.00  0.92  0.00  0.08  0.00  0.00  0.00
  WS02006230WS02006229    1.00   0.00  0.00  0.00  0.99  0.00  0.00  0.01  0.01  0.00
  WS02006228WS02006109    1.00   0.00  0.00  0.00  1.00  0.00  0.00  0.00  0.00  0.00
  WS02006116WS02004401    1.00   0.02  0.00  0.00  0.98  0.00  0.00  0.00  0.00  0.00
  WS02006115WS02006116    1.00   0.02  0.00  0.00  0.97  0.00  0.00  0.01  0.01  0.00
  WS02006113WS02006111    1.00   0.01  0.00  0.00  0.15  0.84  0.00  0.00  0.07  0.00
  WS02006112WS02006115    1.00   0.01  0.00  0.00  0.98  0.00  0.00  0.00  0.00  0.00
  WS02006111WS02006112    1.00   0.01  0.00  0.00  0.98  0.00  0.00  0.00  0.75  0.00
  WS02006110WS02006113    1.00   0.01  0.00  0.00  0.99  0.00  0.00  0.00  0.00  0.00
  WS02006109WS02006110    1.00   0.00  0.01  0.00  0.99  0.00  0.00  0.00  0.00  0.00
  WS02004411WS02004412    1.00   0.04  0.00  0.00  0.96  0.00  0.00  0.00  0.00  0.00
  WS02004401WS02004402    1.00   0.02  0.00  0.00  0.98  0.00  0.00  0.00  0.00  0.00
  WS02004413WS02003067    1.00   0.04  0.01  0.00  0.00  0.00  0.95  0.00  0.00  0.00
  WS02004412WS02004413    1.00   0.04  0.00  0.00  0.96  0.00  0.00  0.00  0.00  0.00
  WS02004410WS02004411    1.00   0.04  0.00  0.00  0.96  0.00  0.00  0.00  0.00  0.00
  WS02004409WS02004410    1.00   0.04  0.00  0.00  0.96  0.00  0.00  0.00  0.00  0.00
  WS02004407WS02004409    1.00   0.04  0.00  0.00  0.95  0.02  0.00  0.00  0.80  0.00
  WS02004406WS02004407    1.00   0.00  0.04  0.00  0.96  0.00  0.00  0.00  0.00  0.00
  WS02004405WS02004406    1.00   0.00  0.00  0.00  1.00  0.00  0.00  0.00  0.02  0.00
  WS02004404WS02004405    1.00   0.00  0.00  0.00  1.00  0.00  0.00  0.00  0.00  0.00
  WS02004403WS02004404    1.00   0.00  0.02  0.00  0.98  0.00  0.00  0.00  0.02  0.00
  WS02004402WS02004403    1.00   0.02  0.00  0.00  0.98  0.00  0.00  0.00  0.00  0.00
  WS02004139WS02001211    1.00   0.00  0.00  0.00  1.00  0.00  0.00  0.00  0.00  0.00
  WS02004138WS02004139    1.00   0.00  0.00  0.00  0.99  0.01  0.00  0.00  1.00  0.00
  WS02003067WS02003066    1.00   0.05  0.00  0.00  0.94  0.00  0.00  0.00  0.00  0.00
  WS02001213WS02003059    1.00   0.00  0.00  0.00  0.99  0.00  0.00  0.00  0.00  0.00
  WS02001212WS02001213    1.00   0.00  0.00  0.00  0.94  0.00  0.06  0.00  0.00  0.00
  WS02001211WS02001212    1.00   0.00  0.00  0.00  1.00  0.00  0.00  0.00  0.00  0.00
  WS02003072WS02003073    1.00   0.00  0.00  0.00  0.00  0.00  0.00  1.00  0.00  0.00
  WS02003069WS02003072    1.00   0.00  0.00  0.00  0.99  0.01  0.00  0.00  0.09  0.00
  WS02003060WS02003069    1.00   0.00  0.00  0.00  0.99  0.01  0.00  0.00  0.05  0.00
  WS02003059WS02003060    1.00   0.00  0.00  0.00  1.00  0.00  0.00  0.00  0.00  0.00
  HS02004901HS02004770    1.00   0.03  0.00  0.00  0.97  0.00  0.00  0.00  0.00  0.00
  HS02004876HS02004881    1.00   0.01  0.00  0.00  0.69  0.29  0.00  0.00  0.00  0.00
  HS02004870HS02004876    1.00   0.01  0.00  0.00  0.99  0.00  0.00  0.00  0.95  0.00
  HS02004842HS02004848    1.00   0.00  0.03  0.00  0.97  0.00  0.00  0.00  0.54  0.00
  HS02004837HS02004842    1.00   0.00  0.00  0.00  0.99  0.01  0.00  0.00  0.11  0.00
  HS02004830HS02004837    1.00   0.00  0.00  0.00  1.00  0.00  0.00  0.00  0.99  0.00
  HS02004824HS02004830    1.00   0.00  0.00  0.00  1.00  0.00  0.00  0.00  0.03  0.00
  HS02004817HS02004824    1.00   0.00  0.00  0.00  1.00  0.00  0.00  0.00  0.88  0.00
  HS02004770HS02004777    1.00   0.00  0.03  0.00  0.97  0.00  0.00  0.00  0.02  0.00
  HS02004799HS02004480    1.00   0.00  0.01  0.00  0.97  0.00  0.02  0.00  0.00  0.00
  HS02004792HS02004799    1.00   0.00  0.00  0.00  0.99  0.01  0.00  0.00  0.98  0.00
  HS02004788HS02004792    1.00   0.00  0.00  0.00  0.99  0.01  0.00  0.00  0.98  0.00
  HS02004785HS02004788    1.00   0.00  0.00  0.00  1.00  0.00  0.00  0.00  0.00  0.00
  HS02004777HS02004785    1.00   0.00  0.00  0.00  1.00  0.00  0.00  0.00  0.11  0.00
  HS02004480HS02004478    1.00   0.03  0.00  0.00  0.59  0.00  0.00  0.38  0.00  0.00
  HS02004479HS02004480    1.00   0.02  0.00  0.00  0.98  0.00  0.00  0.00  0.11  0.00
  HS02004862HS02004870    1.00   0.00  0.00  0.00  1.00  0.00  0.00  0.00  0.02  0.00
  HS02004848HS02004852    1.00   0.03  0.00  0.00  0.97  0.00  0.00  0.00  0.81  0.00
  HS02004856HS02004862    1.00   0.00  0.03  0.00  0.97  0.00  0.00  0.00  0.84  0.00
  HS02004852HS02004856    1.00   0.03  0.00  0.00  0.97  0.00  0.00  0.00  0.70  0.00
  HS02004802HS02004478    1.00   0.03  0.00  0.00  0.97  0.00  0.00  0.00  0.02  0.00
  HS02004478WS02006287    1.00   0.03  0.00  0.00  0.64  0.33  0.00  0.00  0.58  0.00
  HS02004817HS02004807    1.00   0.00  0.03  0.00  0.97  0.00  0.00  0.00  0.01  0.00
  HS02004807HS02004802    1.00   0.03  0.00  0.00  0.97  0.00  0.00  0.00  0.00  0.00
  YS02001759YS02001757    1.00   0.00  0.00  0.00  1.00  0.00  0.00  0.00  0.15  0.00
  YS02001762YS02001759    1.00   0.00  0.00  0.00  1.00  0.00  0.00  0.00  0.02  0.00
  YS02001765YS02001762    1.00   0.00  0.00  0.00  1.00  0.00  0.00  0.00  0.13  0.00
  YS02001770YS02001767    1.00   0.00  0.00  0.00  1.00  0.00  0.00  0.00  0.00  0.00
  YS02001774YS02001770    1.00   0.00  0.03  0.00  0.97  0.00  0.00  0.00  0.02  0.00
  YS02001779YS02001774    1.00   0.00  0.00  0.00  1.00  0.00  0.00  0.00  0.16  0.00
  YS02001649YS02001757    1.00   0.00  0.00  0.00  1.00  0.00  0.00  0.00  0.15  0.00
  YS02001767YS02001765    1.00   0.00  0.00  0.00  1.00  0.00  0.00  0.00  0.00  0.00
  YS02006561YS02001783    1.00   0.03  0.00  0.00  0.52  0.44  0.00  0.00  0.37  0.00
  YS02001783YS02001784    1.00   0.00  0.03  0.00  0.97  0.00  0.00  0.00  0.00  0.00
  YS02001784YS02001785    1.00   0.00  0.00  0.00  1.00  0.00  0.00  0.00  0.16  0.00
  YS02001788YS02001790    1.00   0.00  0.00  0.00  0.60  0.40  0.00  0.00  0.36  0.00
  YS02001790YS02001791    1.00   0.00  0.00  0.00  0.58  0.42  0.00  0.00  0.33  0.00
  YS02001791YS02001793    1.00   0.00  0.00  0.00  0.58  0.42  0.00  0.00  0.01  0.00
  YS02001910YS02001907    1.00   0.00  0.00  0.00  0.98  0.00  0.00  0.01  0.12  0.00
  YS02001786YS02001788    1.00   0.00  0.00  0.00  0.57  0.43  0.00  0.00  0.00  0.00
  YS02001915YS02001910    1.00   0.00  0.00  0.00  1.00  0.00  0.00  0.00  0.13  0.00
  YS02001918YS02001915    1.00   0.00  0.01  0.00  0.99  0.00  0.00  0.00  0.45  0.00
  YS02001923YS02001920    1.00   0.00  0.00  0.00  1.00  0.00  0.00  0.00  0.64  0.00
  YS02001926YS02001923    1.00   0.00  0.02  0.00  0.40  0.00  0.58  0.00  0.00  0.00
  YS02001929YS02001926    1.00   0.00  0.03  0.00  0.97  0.00  0.00  0.00  0.56  0.00
  YS02001920YS02001918    1.00   0.00  0.01  0.00  0.99  0.00  0.00  0.00  0.00  0.00
  YS02001629YS02163301    1.00   0.03  0.00  0.00  0.97  0.00  0.00  0.00  0.00  0.00
  YS02001619YS02001622    1.00   0.03  0.00  0.00  0.97  0.00  0.00  0.00  0.00  0.00
  YS02001622YS02001625    1.00   0.03  0.00  0.00  0.97  0.00  0.00  0.00  0.03  0.00
  YS02001625YS02001629    1.00   0.03  0.01  0.00  0.96  0.00  0.01  0.00  0.00  0.00
  YS02163301YS02001633    1.00   0.00  0.03  0.00  0.97  0.00  0.00  0.00  0.00  0.00
  YS02163601YS02164001    1.00   0.00  0.02  0.00  0.98  0.00  0.00  0.00  0.00  0.00
  YS02164001YS02001641    1.00   0.01  0.01  0.00  0.98  0.00  0.00  0.00  0.06  0.00
  YS02001641YS02001644    1.00   0.00  0.01  0.00  0.99  0.00  0.00  0.00  0.00  0.00
  YS02001647YS02001649    1.00   0.00  0.03  0.00  0.97  0.00  0.00  0.00  0.01  0.00
  YS02006553YS02006556    1.00   0.01  0.00  0.00  0.99  0.00  0.00  0.00  0.03  0.00
  YS02006556YS02006558    1.00   0.00  0.00  0.00  1.00  0.00  0.00  0.00  0.00  0.00
  YSB6556YSB1171          1.00   0.02  0.01  0.00  0.97  0.00  0.00  0.00  0.00  0.00
  YS02001907YS02006553    1.00   0.00  0.01  0.00  0.99  0.00  0.00  0.00  0.00  0.00
  YS02006558YS02006561    1.00   0.03  0.00  0.00  0.43  0.54  0.00  0.00  0.34  0.00
  YS02001633YS02163601    1.00   0.00  0.01  0.00  0.99  0.00  0.00  0.00  0.15  0.00
  YS02001644YS02001647    1.00   0.00  0.03  0.00  0.97  0.00  0.00  0.00  0.00  0.00
  YS02001745YS02001748    1.00   0.00  0.00  0.00  0.95  0.00  0.00  0.05  0.00  0.00
  YS02001748YS02001751    1.00   0.00  0.00  0.00  0.99  0.01  0.00  0.00  0.13  0.00
  YS02001751YS02001754    1.00   0.00  0.00  0.00  0.96  0.00  0.00  0.04  0.01  0.00
  YS02001754YS02001757    1.00   0.00  0.00  0.00  0.99  0.01  0.00  0.00  0.16  0.00
  YS02001882YS02001884    1.00   0.03  0.00  0.00  0.97  0.00  0.00  0.00  0.00  0.00
  YS02001884YS02001887    1.00   0.02  0.01  0.00  0.97  0.00  0.00  0.00  0.00  0.00
  YS02001890YS02001895    1.00   0.00  0.03  0.00  0.97  0.00  0.00  0.00  0.00  0.00
  YS02001895YS02001898    1.00   0.03  0.00  0.00  0.96  0.00  0.00  0.00  0.00  0.00
  YS02001898YS02001901    1.00   0.03  0.00  0.00  0.97  0.00  0.00  0.00  0.00  0.00
  YS02001901YS02001904    1.00   0.03  0.00  0.00  0.97  0.00  0.00  0.00  0.00  0.00
  YS02001904YS02001907    1.00   0.00  0.03  0.00  0.97  0.00  0.00  0.00  0.00  0.00
  YS02001887YS02001890    1.00   0.00  0.00  0.00  0.98  0.00  0.01  0.00  0.00  0.00
  YS02001652YS02001649    1.00   0.00  0.00  0.00  1.00  0.00  0.00  0.00  0.15  0.00
  YS02001655YS02001652    1.00   0.00  0.00  0.00  0.96  0.00  0.00  0.04  0.01  0.00
  YS02001658YS02001655    1.00   0.00  0.03  0.00  0.96  0.01  0.00  0.00  0.01  0.00
  YS02001661YS02001658    1.00   0.03  0.00  0.00  0.95  0.02  0.00  0.00  0.00  0.00
  YS02001664YS02001661    1.00   0.03  0.00  0.00  0.95  0.02  0.00  0.00  0.07  0.00
  YSB1154YSB6556          1.00   0.03  0.00  0.00  0.97  0.00  0.00  0.00  0.01  0.00
  YSB1174YSB1171          1.00   0.02  0.01  0.00  0.98  0.00  0.00  0.00  0.00  0.00
  YSB1171HS02004479       1.00   0.02  0.00  0.00  0.98  0.00  0.00  0.00  0.10  0.00
  HS02004881HS02006253    1.00   0.02  0.00  0.00  0.94  0.02  0.00  0.02  0.82  0.00
  YS02001793JiankangQianchi    1.00   0.00  0.00  0.00  0.69  0.31  0.00  0.00  0.11  0.00
  YS02001757CaochengTiaoxuchi    1.00   0.00  0.04  0.00  0.91  0.05  0.00  0.00  0.00  0.00
  WSF200WS02003060        1.00   0.00  0.02  0.00  0.83  0.16  0.00  0.00  0.13  0.00
  1                       1.00   0.00  0.00  0.00  0.00  1.00  0.00  0.00  0.42  0.00
  2                       1.00   0.28  0.00  0.00  0.00  0.72  0.00  0.00  0.14  0.00
  3                       1.00   0.03  0.00  0.00  0.00  0.97  0.00  0.00  0.01  0.00
  4                       1.00   1.00  0.00  0.00  0.00  0.00  0.00  0.00  0.00  0.00
  
  
  *************************
  Conduit Surcharge Summary
  *************************
  
  ----------------------------------------------------------------------------
                                                           Hours        Hours 
                         --------- Hours Full --------   Above Full   Capacity
  Conduit                Both Ends  Upstream  Dnstream   Normal Flow   Limited
  ----------------------------------------------------------------------------
  WS02006229WS02006228        4.66      4.87      4.66      6.43         4.66
  WS02006256WS02006235        6.44      6.44      7.69      2.41         0.01
  WS02006253WS02006251        0.75      0.75      1.01      0.01         0.01
  WS02006252WS02006251        2.89      2.89      4.21      3.87         0.01
  WS02006251WS02006249        0.15      0.81      0.15      3.29         0.15
  WS02006249WS02006248        0.02      0.02      0.15      5.75         0.01
  WS02006248WS02006247        0.21      0.21      1.19      0.01         0.01
  WS02006247WS02006245        1.19      1.29      1.20      6.10         1.08
  WS02006245WS02006243        1.30      1.30      1.79      0.01         0.01
  WS02006243WS02006242        1.83      1.83      3.99      0.01         0.01
  WS02006242WS02006240        1.96      1.96      4.41      3.19         0.01
  WS02006240WS02006239        2.38      2.39      2.60      0.04         0.01
  WS02006239WS02006238        4.30      4.31      4.47      0.08         0.05
  WS02006238WS02006235        4.32      4.32      4.82      0.01         0.02
  WS02006235WS02006234        1.99      1.99      4.10      6.09         0.14
  WS02006234WS02006232        2.43      2.43      5.00      0.01         0.01
  WS02006232WS02006231        1.84      1.84      5.00      0.01         0.01
  WS02006231WS02006230        1.77      1.77      1.86      6.14         0.11
  WS02006230WS02006229        5.57      6.40      5.57      6.33         5.42
  WS02006228WS02006109        4.76      5.27      4.76      6.45         4.76
  WS02006116WS02004401        1.42      1.42      1.52      1.08         1.07
  WS02006115WS02006116        0.87      0.87      0.89      0.61         0.59
  WS02006113WS02006111        0.01      0.01      0.01      0.06         0.01
  WS02006112WS02006115        0.80      0.80      2.05      0.01         0.01
  WS02006111WS02006112        0.01      0.01      6.37      0.01         0.01
  WS02006110WS02006113        0.01      0.01      5.08      0.01         0.01
  WS02006109WS02006110        1.94      1.94      5.27      1.95         0.01
  WS02004411WS02004412        0.01      0.01      0.01      1.26         0.01
  WS02004401WS02004402        1.51      1.52      1.66      0.30         0.30
  WS02004410WS02004411        0.01      0.01      0.01      1.03         0.01
  WS02004409WS02004410        0.01      0.01      0.01      0.66         0.01
  WS02004406WS02004407        0.01      0.01      1.74      0.01         0.01
  WS02004405WS02004406        1.74      1.76      1.74      1.99         1.74
  WS02004404WS02004405        1.76      1.78      1.76      6.42         1.76
  WS02004403WS02004404        1.68      1.68      1.78      0.01         0.01
  WS02004402WS02004403        1.66      1.66      1.68      1.36         1.35
  WS02003072WS02003073        0.01      0.01      0.01      6.26         0.01
  HS02004876HS02004881        0.01      0.01      0.01      0.86         0.01
  HS02004817HS02004824        0.01      0.01      0.32      0.01         0.01
  HS02004785HS02004788        0.01      0.01      0.01      0.81         0.01
  HS02004480HS02004478        0.01      0.01      0.01      1.81         0.01
  HS02004817HS02004807        0.01      0.01      0.32      0.01         0.01
  YS02001759YS02001757        6.34      6.34      6.36      0.01         0.01
  YS02001762YS02001759        6.34      6.34      6.34      0.01         0.01
  YS02001765YS02001762        6.33      6.33      6.34      0.01         0.01
  YS02001770YS02001767        6.33      6.33      6.33      0.86         0.64
  YS02001774YS02001770        6.33      6.33      6.34      0.01         0.01
  YS02001779YS02001774        6.31      6.31      6.34      0.01         0.01
  YS02001649YS02001757        6.34      6.34      6.36      0.01         0.01
  YS02001767YS02001765        6.33      6.33      6.33      0.01         0.01
  YS02006561YS02001783        2.42      2.42      2.93      0.01         0.01
  YS02001783YS02001784        2.93      2.93      2.95      2.81         2.74
  YS02001784YS02001785        2.88      2.95      2.88      3.56         2.87
  YS02001788YS02001790        2.80      2.80      3.21      0.01         0.01
  YS02001790YS02001791        3.21      3.21      3.37      2.33         2.22
  YS02001791YS02001793        3.37      3.37      3.66      0.01         0.01
  YS02001910YS02001907        2.74      2.74      3.02      0.01         0.01
  YS02001786YS02001788        2.80      2.88      2.80      3.21         2.79
  YS02001915YS02001910        2.56      2.56      2.74      0.01         0.01
  YS02001918YS02001915        2.33      2.33      2.56      0.01         0.01
  YS02001923YS02001920        2.16      2.16      2.37      0.01         0.01
  YS02001926YS02001923        0.01      0.01      0.01      0.01         0.01
  YS02001929YS02001926        0.01      0.01      0.01      0.01         0.01
  YS02001920YS02001918        2.33      2.33      2.37      0.01         0.01
  YS02001629YS02163301        6.33      6.33      6.33      0.01         0.01
  YS02001619YS02001622        6.31      6.31      6.31      0.01         0.01
  YS02001622YS02001625        6.31      6.31      6.32      0.01         0.01
  YS02001625YS02001629        6.31      6.31      6.32      0.01         0.01
  YS02163301YS02001633        6.33      6.33      6.33      0.01         0.01
  YS02163601YS02164001        6.33      6.33      6.34      0.01         0.01
  YS02164001YS02001641        6.33      6.33      6.33      0.01         0.02
  YS02001641YS02001644        6.33      6.33      6.34      3.05         3.18
  YS02001647YS02001649        6.32      6.32      6.34      0.01         0.01
  YS02006553YS02006556        2.90      2.90      3.07      0.01         0.01
  YS02006556YS02006558        2.96      2.96      3.13      0.01         0.01
  YSB6556YSB1171              0.01      0.01      0.43      0.01         0.01
  YS02001907YS02006553        3.53      3.53      3.72      0.01         0.01
  YS02006558YS02006561        2.60      2.87      2.60      3.40         2.60
  YS02001633YS02163601        6.33      6.33      6.34      0.01         0.01
  YS02001644YS02001647        6.32      6.32      6.34      0.01         0.01
  YS02001745YS02001748        0.46      0.46      6.28      0.01         0.01
  YS02001748YS02001751        6.29      6.29      6.30      0.01         0.01
  YS02001751YS02001754        6.30      6.30      6.31      0.01         0.01
  YS02001754YS02001757        6.31      6.31      6.36      0.01         0.01
  YS02001882YS02001884        2.57      2.57      2.60      0.01         0.01
  YS02001884YS02001887        2.65      2.65      2.67      0.01         0.01
  YS02001890YS02001895        2.54      2.54      2.76      0.01         0.01
  YS02001895YS02001898        2.53      2.53      2.54      0.01         0.01
  YS02001898YS02001901        2.55      2.55      2.64      0.01         0.01
  YS02001901YS02001904        2.62      2.62      2.64      0.01         0.01
  YS02001904YS02001907        2.62      2.62      3.09      0.01         0.01
  YS02001887YS02001890        2.70      2.70      2.72      1.55         0.01
  YS02001652YS02001649        6.32      6.32      6.34      0.01         0.01
  YS02001655YS02001652        6.30      6.30      6.31      0.01         0.01
  YS02001658YS02001655        6.29      6.29      6.30      0.01         0.01
  YS02001661YS02001658        1.05      1.05      6.29      0.01         0.01
  YS02001664YS02001661        0.01      0.01      2.57      0.01         0.01
  YSB1174YSB1171              0.01      0.01      0.16      0.01         0.01
  YS02001793JiankangQianchi        3.64      3.64      4.36      0.01         0.01
  YS02001757CaochengTiaoxuchi        5.86      5.86      6.36      0.01         0.01
  3                           0.01      0.01      0.01      0.01         0.01
  
  
  ***************
  Pumping Summary
  ***************
  
  ---------------------------------------------------------------------------------------------------------
                                                  Min       Avg       Max     Total     Power    % Time Off
                        Percent   Number of      Flow      Flow      Flow    Volume     Usage    Pump Curve
  Pump                 Utilized   Start-Ups       LPS       LPS       LPS  10^6 ltr     Kw-hr    Low   High
  ---------------------------------------------------------------------------------------------------------
  CC-Pump-1               79.71           3      0.00    161.54    200.00     3.669      4.53    0.0    3.8
  CC-Pump-2               73.32           5      0.00    158.29    200.00     3.309      3.99    0.0    1.4
  JK-Pump-1               95.74           3      0.00    230.91    300.00     5.254     46.69    0.0    0.0
  JK-Pump-2               93.61           5      0.00    222.36    300.00     4.834     44.12    0.0    0.0
  XR-Pump-1               97.86           9      0.00     72.19     95.00     2.052     17.74    0.0    0.0
  XR-Pump-2               95.73           6      0.00     79.45     95.00     2.109     15.67    0.0    0.0
  XR-Pump-3               95.74           4      0.00     79.39     95.00     2.166     18.24    0.0    0.0
  XR-Pump-4               97.86           6      0.00     77.24     95.00     2.166     18.27    0.0    0.0
  

  Analysis begun on:  Fri Jan  7 12:06:46 2022
  Analysis ended on:  Fri Jan  7 12:06:50 2022
  Total elapsed time: 00:00:04