
  EPA STORM WATER MANAGEMENT MODEL - VERSION 5.1 (Build 5.3.0.dev0)
  --------------------------------------------------------------

  WARNING 04: minimum elevation drop used for Conduit WS02004404WS02004405
  WARNING 03: negative offset ignored for Link YS02001904YS02001907
  
  *********************************************************
  NOTE: The summary statistics displayed in this report are
  based on results found at every computational time step,  
  not just on results from each reporting time step.
  *********************************************************
  
  ****************
  Analysis Options
  ****************
  Flow Units ............... LPS
  Process Models:
    Rainfall/Runoff ........ YES
    RDII ................... NO
    Snowmelt ............... NO
    Groundwater ............ NO
    Flow Routing ........... YES
    Ponding Allowed ........ NO
    Water Quality .......... NO
  Infiltration Method ...... HORTON
  Flow Routing Method ...... DYNWAVE
  Surcharge Method ......... EXTRAN
  Starting Date ............ 08/28/2015 08:00:00
  Ending Date .............. 08/28/2015 15:50:00
  Antecedent Dry Days ...... 8.0
  Report Time Step ......... 00:01:00
  Wet Time Step ............ 00:01:00
  Dry Time Step ............ 00:01:00
  Routing Time Step ........ 5.00 sec
  Variable Time Step ....... YES
  Maximum Trials ........... 8
  Number of Threads ........ 4
  Head Tolerance ........... 0.001500 m
  
  
  **************************        Volume         Depth
  Runoff Quantity Continuity     hectare-m            mm
  **************************     ---------       -------
  Total Precipitation ......         2.495         5.462
  Evaporation Loss .........         0.000         0.000
  Infiltration Loss ........         0.624         1.367
  Surface Runoff ...........         1.004         2.198
  Final Storage ............         0.867         1.898
  Continuity Error (%) .....        -0.018
  
  
  **************************        Volume        Volume
  Flow Routing Continuity        hectare-m      10^6 ltr
  **************************     ---------     ---------
  Dry Weather Inflow .......         0.616         6.165
  Wet Weather Inflow .......         1.003        10.034
  Groundwater Inflow .......         0.000         0.000
  RDII Inflow ..............         0.000         0.000
  External Inflow ..........         0.102         1.024
  External Outflow .........         1.449        14.492
  Flooding Loss ............         0.079         0.792
  Evaporation Loss .........         0.000         0.000
  Exfiltration Loss ........         0.000         0.000
  Initial Stored Volume ....         0.076         0.761
  Final Stored Volume ......         0.277         2.767
  Continuity Error (%) .....        -0.379
  
  
  *************************
  Highest Continuity Errors
  *************************
  Node HS02004842 (30.09%)
  Node YS02001884 (24.58%)
  Node YS02001774 (7.98%)
  Node YSB1171 (7.64%)
  Node HS02004901 (6.10%)
  
  
  ***************************
  Time-Step Critical Elements
  ***************************
  Link WS02006252WS02006251 (70.14%)
  Link 3 (17.58%)
  Link WS02006238WS02006235 (5.74%)
  Link WS02006280WS02006229 (2.38%)
  
  
  ********************************
  Highest Flow Instability Indexes
  ********************************
  Link WS02006113WS02006111 (42)
  Link WS02006111WS02006112 (22)
  Link YS02001754YS02001757 (3)
  Link YS02001762YS02001759 (2)
  Link YS02001652YS02001649 (2)
  
  
  *************************
  Routing Time Step Summary
  *************************
  Minimum Time Step           :     0.50 sec
  Average Time Step           :     0.92 sec
  Maximum Time Step           :     5.00 sec
  Percent in Steady State     :    -0.00
  Average Iterations per Step :     2.04
  Percent Not Converging      :     0.30
  
  
  ***************************
  Subcatchment Runoff Summary
  ***************************
  
  ------------------------------------------------------------------------------------------------------------------------------
                            Total      Total      Total      Total     Imperv       Perv      Total       Total     Peak  Runoff
                           Precip      Runon       Evap      Infil     Runoff     Runoff     Runoff      Runoff   Runoff   Coeff
  Subcatchment                 mm         mm         mm         mm         mm         mm         mm    10^6 ltr      LPS
  ------------------------------------------------------------------------------------------------------------------------------
  sub0                       5.46       0.00       0.00       0.38       3.81       0.00       3.81        0.00     1.22   0.698
  sub1                       5.46       0.00       0.00       0.60       3.61       0.00       3.61        0.02     6.40   0.660
  sub2                       5.46       0.00       0.00       2.02       2.54       0.00       2.54        0.02     5.67   0.464
  sub3                       5.46       0.00       0.00       2.02       2.50       0.00       2.50        0.06    11.67   0.458
  sub4                       5.46       0.00       0.00       0.60       3.47       0.00       3.47        0.07    13.12   0.635
  sub5                       5.46       0.00       0.00       0.38       3.77       0.00       3.77        0.04    11.38   0.690
  sub7                       5.46       0.00       0.00       0.49       3.72       0.00       3.72        0.01     4.02   0.680
  sub8                       5.46       0.00       0.00       0.49       3.71       0.00       3.71        0.02     7.09   0.679
  sub9                       5.46       0.00       0.00       0.49       3.70       0.00       3.70        0.02     5.25   0.678
  sub10                      5.46       0.00       0.00       0.44       3.73       0.00       3.73        0.04    11.36   0.684
  sub11                      5.46       0.00       0.00       0.44       3.75       0.00       3.75        0.04    13.33   0.687
  sub12                      5.46       0.00       0.00       0.71       3.56       0.00       3.56        0.03    11.29   0.652
  sub14                      5.46       0.00       0.00       0.49       3.70       0.00       3.70        0.04    10.26   0.678
  sub15                      5.46       0.00       0.00       1.64       2.85       0.00       2.85        0.05    13.93   0.521
  sub16                      5.46       0.00       0.00       1.80       2.74       0.00       2.74        0.03     9.93   0.502
  sub17                      5.46       0.00       0.00       1.75       2.78       0.00       2.78        0.02     8.02   0.509
  sub22                      5.46       0.00       0.00       2.35       2.32       0.00       2.32        0.15    45.61   0.426
  sub23                      5.46       0.00       0.00       2.02       2.57       0.00       2.57        0.12    38.85   0.471
  sub60                      5.46       0.00       0.00       0.66       2.43       0.00       2.43        0.74    67.28   0.446
  sub61                      5.46       0.00       0.00       0.93       2.62       0.00       2.62        0.81    84.42   0.480
  sub62                      5.46       0.00       0.00       0.44       2.81       0.00       2.81        0.86    86.35   0.514
  sub63                      5.46       0.00       0.00       1.58       2.34       0.00       2.34        0.71    78.70   0.429
  sub64                      5.46       0.00       0.00       0.82       2.33       0.00       2.33        0.71    63.86   0.426
  sub65                      5.46       0.00       0.00       0.71       2.35       0.00       2.35        0.72    64.75   0.431
  sub66                      5.46       0.00       0.00       1.58       2.03       0.00       2.03        0.62    58.67   0.373
  sub67                      5.46       0.00       0.00       0.44       3.11       0.00       3.11        0.96   110.55   0.569
  sub68                      5.46       0.00       0.00       0.76       2.80       0.00       2.80        0.86    93.27   0.512
  sub69                      5.46       0.00       0.00       0.82       3.04       0.00       3.04        0.71    92.37   0.557
  sub70                      5.46       3.10       0.00       2.91       3.68       0.00       3.68        0.84    73.56   0.429
  sub71                      5.46       0.00       0.00       0.44       2.68       0.00       2.68        0.63    60.33   0.490
  sub72                      5.46       0.00       0.00       0.38       1.86       0.00       1.86        0.38    28.02   0.340
  sub73                      5.46       3.58       0.00       3.07       3.70       0.00       3.70        0.87    62.93   0.409
  sub74                      5.46       0.00       0.00       4.10       0.92       0.00       0.92        0.37    51.48   0.168
  
  
  ******************
  Node Depth Summary
  ******************
  
  ---------------------------------------------------------------------------------
                                 Average  Maximum  Maximum  Time of Max    Reported
                                   Depth    Depth      HGL   Occurrence   Max Depth
  Node                 Type       Meters   Meters   Meters  days hr:min      Meters
  ---------------------------------------------------------------------------------
  WS02001211           JUNCTION     0.63     0.71     5.55     0  02:57        0.71
  WS02001212           JUNCTION     0.36     0.43     5.49     0  02:56        0.43
  WS02001213           JUNCTION     0.59     0.68     5.44     0  02:55        0.68
  WS02003069           JUNCTION     0.41     0.51     5.10     0  03:13        0.51
  WS02003072           JUNCTION     0.48     0.57     4.95     0  03:13        0.57
  WS02003073           JUNCTION     0.29     0.35     4.41     0  03:14        0.35
  WS02003060           JUNCTION     0.37     0.45     5.38     0  03:12        0.45
  WS02003066           JUNCTION     0.23     0.28     5.84     0  02:45        0.28
  WS02003059           JUNCTION     0.65     0.74     5.42     0  03:12        0.74
  WS02003067           JUNCTION     0.56     0.67     5.99     0  02:44        0.67
  WS02004401           JUNCTION     0.66     0.80     6.80     0  02:41        0.80
  WS02004402           JUNCTION     0.69     0.83     6.79     0  02:41        0.83
  WS02004403           JUNCTION     0.71     0.84     6.77     0  02:41        0.84
  WS02004404           JUNCTION     0.79     0.92     6.77     0  02:41        0.92
  WS02004406           JUNCTION     0.79     0.92     6.75     0  02:42        0.92
  WS02004409           JUNCTION     0.48     0.62     6.39     0  02:44        0.62
  WS02004410           JUNCTION     0.50     0.63     6.35     0  02:44        0.63
  WS02004411           JUNCTION     0.51     0.65     6.33     0  02:44        0.65
  WS02004412           JUNCTION     0.53     0.66     6.30     0  02:44        0.66
  WS02004413           JUNCTION     0.69     0.82     6.29     0  02:44        0.82
  WS02004405           JUNCTION     0.78     0.91     6.76     0  02:42        0.91
  WS02006109           JUNCTION     0.74     0.89     7.51     0  02:36        0.89
  WS02006110           JUNCTION     0.73     0.87     7.45     0  02:36        0.87
  WS02006111           JUNCTION     0.21     0.27     6.97     0  02:37        0.27
  WS02006112           JUNCTION     0.82     0.98     6.87     0  02:40        0.98
  WS02006113           JUNCTION     0.33     0.42     7.31     0  02:37        0.42
  WS02006115           JUNCTION     0.55     0.69     6.83     0  02:40        0.69
  WS02006116           JUNCTION     0.63     0.77     6.81     0  02:41        0.77
  WS02006230           JUNCTION     0.70     0.92     7.66     0  03:04        0.92
  WS02006231           JUNCTION     0.47     0.62     7.74     0  03:04        0.62
  WS02006232           JUNCTION     0.61     0.76     7.80     0  03:04        0.76
  WS02006234           JUNCTION     0.52     0.70     7.86     0  03:04        0.70
  WS02006235           JUNCTION     0.56     0.74     7.90     0  03:04        0.74
  WS02006238           JUNCTION     0.58     0.77     7.91     0  03:04        0.77
  WS02006240           JUNCTION     0.48     0.70     7.99     0  03:23        0.70
  WS02006242           JUNCTION     0.54     0.77     8.04     0  03:23        0.77
  WS02006243           JUNCTION     0.42     0.66     8.08     0  03:24        0.66
  WS02006245           JUNCTION     0.41     0.63     8.12     0  03:24        0.63
  WS02006247           JUNCTION     0.42     0.65     8.15     0  03:24        0.65
  WS02006248           JUNCTION     0.37     0.58     8.17     0  03:24        0.58
  WS02006249           JUNCTION     0.41     0.60     8.20     0  03:24        0.60
  WS02006239           JUNCTION     0.54     0.74     7.95     0  03:22        0.74
  WS02006251           JUNCTION     0.40     0.62     8.29     0  03:24        0.62
  WS02006252           JUNCTION     0.36     0.58     8.83     0  03:00        0.58
  WS02006253           JUNCTION     0.42     0.65     8.29     0  03:23        0.65
  WS02006256           JUNCTION     0.98     1.15     8.08     0  00:00        1.12
  WS02004138           JUNCTION     0.14     0.17     7.42     0  00:00        0.17
  WS02004407           JUNCTION     0.22     0.28     6.59     0  02:42        0.28
  WS02006228           JUNCTION     0.73     0.97     7.62     0  03:00        0.91
  WS02006229           JUNCTION     0.71     0.90     7.60     0  02:36        0.90
  WS02006280           JUNCTION     0.05     0.14     8.41     0  02:20        0.14
  WS02006284           JUNCTION     0.34     0.47     8.87     0  02:20        0.47
  WS02006287           JUNCTION     0.08     0.20     9.15     0  02:20        0.20
  WSF200               JUNCTION     0.21     0.28     5.52     0  02:50        0.28
  HS02004901           JUNCTION     0.11     0.22    10.04     0  02:18        0.22
  HS02004881           JUNCTION     0.01     0.02     9.05     0  02:19        0.02
  HS02004876           JUNCTION     0.03     0.10     9.13     0  02:18        0.10
  HS02004870           JUNCTION     0.01     0.04     9.32     0  02:20        0.04
  HS02004862           JUNCTION     0.01     0.04     9.43     0  02:21        0.04
  HS02004856           JUNCTION     0.07     0.10     9.53     0  02:20        0.10
  HS02004852           JUNCTION     0.01     0.02     9.54     0  02:21        0.02
  HS02004848           JUNCTION     0.01     0.02     9.63     0  02:19        0.02
  HS02004842           JUNCTION     0.33     0.36     9.63     0  02:19        0.36
  HS02004837           JUNCTION     0.03     0.04     9.62     0  02:19        0.04
  HS02004830           JUNCTION     0.04     0.06     9.53     0  02:20        0.06
  HS02004824           JUNCTION     0.02     0.04     9.44     0  02:23        0.04
  HS02004817           JUNCTION     0.42     0.51     9.36     0  02:20        0.51
  HS02004807           JUNCTION     0.11     0.19     9.36     0  02:20        0.19
  HS02004802           JUNCTION     0.15     0.23     9.35     0  02:20        0.23
  HS02004799           JUNCTION     0.10     0.24     9.45     0  02:18        0.24
  HS02004792           JUNCTION     0.02     0.09     9.61     0  02:17        0.09
  HS02004788           JUNCTION     0.02     0.07     9.96     0  02:18        0.07
  HS02004785           JUNCTION     0.03     0.12    10.03     0  02:18        0.12
  HS02004777           JUNCTION     0.13     0.24    10.04     0  02:18        0.24
  HS02004770           JUNCTION     0.10     0.21    10.04     0  02:18        0.21
  HS02004480           JUNCTION     0.06     0.18     9.42     0  02:18        0.18
  HS02004479           JUNCTION     0.10     0.22     9.43     0  02:18        0.22
  HS02004478           JUNCTION     0.05     0.12     9.34     0  02:19        0.12
  YS02001745           JUNCTION     0.08     0.11     7.63     0  03:01        0.11
  YS02001748           JUNCTION     0.24     0.40     7.47     0  04:38        0.39
  YS02001751           JUNCTION     0.42     0.59     7.47     0  04:39        0.59
  YS02001754           JUNCTION     0.67     0.87     7.48     0  04:38        0.87
  YS02001762           JUNCTION     0.86     1.07     7.47     0  04:41        1.06
  YS02001765           JUNCTION     0.82     1.02     7.47     0  04:41        1.01
  YS02001767           JUNCTION     0.78     0.98     7.47     0  04:39        0.98
  YS02001770           JUNCTION     0.78     0.94     7.44     0  04:42        0.94
  YS02001774           JUNCTION     0.84     1.03     7.45     0  04:41        1.03
  YS02001779           JUNCTION     0.60     0.78     7.46     0  04:41        0.77
  YS02001882           JUNCTION     0.27     0.43     7.14     0  02:58        0.43
  YS02001884           JUNCTION     0.36     0.53     7.14     0  02:58        0.52
  YS02001759           JUNCTION     0.90     1.10     7.46     0  04:41        1.08
  YS02001887           JUNCTION     0.44     0.60     7.14     0  02:58        0.60
  YS02001890           JUNCTION     0.47     0.63     7.14     0  02:58        0.63
  YS02001898           JUNCTION     0.24     0.39     7.12     0  02:59        0.39
  YS02001901           JUNCTION     0.36     0.52     7.12     0  02:59        0.52
  YS02001904           JUNCTION     0.34     0.49     7.12     0  03:00        0.49
  YS02001907           JUNCTION     0.67     0.83     7.12     0  02:59        0.83
  YS02001910           JUNCTION     0.46     0.62     7.12     0  02:59        0.62
  YS02001915           JUNCTION     0.26     0.40     7.12     0  02:59        0.40
  YS02001918           JUNCTION     0.07     0.09     7.16     0  03:03        0.09
  YS02001619           JUNCTION     0.38     0.53     7.46     0  04:43        0.53
  YS02001629           JUNCTION     0.73     0.90     7.45     0  04:40        0.90
  YS02001641           JUNCTION     0.83     1.03     7.47     0  04:42        1.02
  YS02001644           JUNCTION     0.84     1.03     7.46     0  04:38        1.02
  YS02001652           JUNCTION     0.68     0.88     7.47     0  04:40        0.88
  YS02001655           JUNCTION     0.45     0.63     7.48     0  04:38        0.63
  YS02001920           JUNCTION     0.17     0.20     7.20     0  03:03        0.20
  YS02001923           JUNCTION     0.06     0.08     7.34     0  03:02        0.08
  YS02001926           JUNCTION     0.13     0.17     7.61     0  03:01        0.17
  YS02001929           JUNCTION     0.06     0.08     7.77     0  03:01        0.08
  YS02001658           JUNCTION     0.18     0.33     7.47     0  04:39        0.33
  YS02001661           JUNCTION     0.14     0.19     7.59     0  02:50        0.19
  YS02001664           JUNCTION     0.06     0.11     8.03     0  02:49        0.11
  YS02001622           JUNCTION     0.40     0.53     7.44     0  04:41        0.53
  YS02001633           JUNCTION     0.82     1.00     7.45     0  04:44        1.00
  YS02001649           JUNCTION     0.87     1.05     7.44     0  04:44        1.05
  YS02001757           JUNCTION     1.00     1.19     7.45     0  04:42        1.18
  YS02001895           JUNCTION     0.24     0.39     7.13     0  02:58        0.39
  YS02001625           JUNCTION     0.68     0.86     7.46     0  04:41        0.86
  YS02163301           JUNCTION     0.76     0.94     7.45     0  04:42        0.94
  YS02163601           JUNCTION     0.87     1.06     7.46     0  04:02        1.04
  YS02164001           JUNCTION     0.81     1.00     7.46     0  04:39        0.99
  YS02001647           JUNCTION     0.67     0.84     7.45     0  04:41        0.84
  YSB1154              JUNCTION     0.23     0.37     9.43     0  02:19        0.37
  YSB6556              JUNCTION     0.13     0.26     9.43     0  02:18        0.26
  YSB1174              JUNCTION     0.19     0.32     9.43     0  02:18        0.32
  YSB1171              JUNCTION     0.38     0.52     9.43     0  02:18        0.52
  YS02006553           JUNCTION     0.67     0.84     7.12     0  02:59        0.84
  YS02006561           JUNCTION     0.13     0.21     6.87     0  03:00        0.21
  YS02006556           JUNCTION     0.64     0.81     7.12     0  03:00        0.81
  YS02006558           JUNCTION     0.69     0.85     7.12     0  03:00        0.85
  YS02001783           JUNCTION     0.23     0.38     6.52     0  03:00        0.38
  YS02001784           JUNCTION     0.26     0.40     6.47     0  02:59        0.40
  YS02001786           JUNCTION     0.22     0.34     6.37     0  03:00        0.34
  YS02001788           JUNCTION     0.16     0.26     6.23     0  03:00        0.26
  YS02001790           JUNCTION     0.19     0.31     5.96     0  03:00        0.31
  YS02001791           JUNCTION     0.13     0.20     5.67     0  03:00        0.20
  YS02001793           JUNCTION     0.09     0.13     4.97     0  03:01        0.13
  WS02004139           JUNCTION     0.57     0.65     5.56     0  02:57        0.65
  WSC                  OUTFALL      0.29     0.35     1.02     0  03:14        0.35
  3                    OUTFALL      0.05     0.13     6.13     0  00:00        0.12
  4                    OUTFALL      0.02     0.10     7.10     0  03:24        0.10
  5                    OUTFALL      0.00     0.00     5.00     0  00:00        0.00
  JK-storage           STORAGE      0.04     3.00     3.80     0  00:00        2.70
  CC-storage           STORAGE      0.25     0.40     7.40     0  04:41        0.40
  XR-storage           STORAGE      7.24     7.72     5.72     0  03:19        7.72
  
  
  *******************
  Node Inflow Summary
  *******************
  
  -------------------------------------------------------------------------------------------------
                                  Maximum  Maximum                  Lateral       Total        Flow
                                  Lateral    Total  Time of Max      Inflow      Inflow     Balance
                                   Inflow   Inflow   Occurrence      Volume      Volume       Error
  Node                 Type           LPS      LPS  days hr:min    10^6 ltr    10^6 ltr     Percent
  -------------------------------------------------------------------------------------------------
  WS02001211           JUNCTION      7.35   293.67     0  04:00       0.207        5.94       0.377
  WS02001212           JUNCTION      0.00   294.85     0  03:59           0        5.92       0.220
  WS02001213           JUNCTION      0.00   295.98     0  04:00           0        5.91       0.306
  WS02003069           JUNCTION      0.32   750.65     0  03:12     0.00902        13.1       0.180
  WS02003072           JUNCTION      0.00   750.29     0  03:13           0        13.1       0.237
  WS02003073           JUNCTION      1.82   751.85     0  03:14      0.0514        13.1       0.265
  WS02003060           JUNCTION     16.53   750.40     0  03:12       0.466        13.1       0.171
  WS02003066           JUNCTION      0.00   468.22     0  02:44           0        6.77       0.063
  WS02003059           JUNCTION      0.00   298.20     0  04:00           0        5.89       0.517
  WS02003067           JUNCTION      0.00   468.20     0  02:44           0        6.78       0.134
  WS02004401           JUNCTION      0.00   470.07     0  02:39           0           7       0.268
  WS02004402           JUNCTION      0.00   469.80     0  02:40           0        6.98       0.257
  WS02004403           JUNCTION      0.00   469.76     0  02:41           0        6.96       0.238
  WS02004404           JUNCTION      0.16   469.89     0  02:41     0.00457        6.95       0.183
  WS02004406           JUNCTION      0.00   469.92     0  02:42           0        6.92       0.448
  WS02004409           JUNCTION      0.00   469.85     0  02:42           0        6.88       0.213
  WS02004410           JUNCTION      0.00   469.26     0  02:42           0        6.87       0.246
  WS02004411           JUNCTION      0.00   468.80     0  02:43           0        6.85       0.258
  WS02004412           JUNCTION      0.00   468.49     0  02:43           0        6.83       0.283
  WS02004413           JUNCTION      0.00   468.29     0  02:44           0        6.81       0.425
  WS02004405           JUNCTION      0.04   469.91     0  02:41     0.00107        6.94       0.274
  WS02006109           JUNCTION      1.23   468.07     0  02:36      0.0347        7.07       0.237
  WS02006110           JUNCTION      0.00   468.07     0  02:36           0        7.05       0.215
  WS02006111           JUNCTION      0.00   482.48     0  02:37           0        7.03       0.036
  WS02006112           JUNCTION      8.02   474.33     0  02:37      0.0238        7.05       0.366
  WS02006113           JUNCTION      0.00   468.18     0  02:36           0        7.04       0.095
  WS02006115           JUNCTION      0.00   471.61     0  02:37           0        7.03       0.231
  WS02006116           JUNCTION      0.00   470.59     0  02:39           0        7.01       0.227
  WS02006230           JUNCTION     10.28   390.52     0  03:31        0.29        6.23       0.181
  WS02006231           JUNCTION      0.00   380.05     0  03:31           0        5.94       0.066
  WS02006232           JUNCTION      0.00   380.02     0  03:31           0        5.95       0.184
  WS02006234           JUNCTION      0.00   380.87     0  04:22           0        5.96       0.043
  WS02006235           JUNCTION      0.00   381.59     0  04:21           0        5.99       0.121
  WS02006238           JUNCTION      0.00   316.05     0  07:31           0         4.2       0.083
  WS02006240           JUNCTION      0.00   322.18     0  07:31           0        4.19       0.080
  WS02006242           JUNCTION      0.00   325.85     0  07:31           0        4.18       0.099
  WS02006243           JUNCTION      0.00   335.43     0  03:01           0        4.15      -0.429
  WS02006245           JUNCTION      0.00   341.15     0  03:00           0        4.16       0.119
  WS02006247           JUNCTION      0.00   348.90     0  03:00           0        4.16       0.012
  WS02006248           JUNCTION      0.00   355.08     0  03:00           0        4.16      -0.039
  WS02006249           JUNCTION      0.00   407.63     0  03:24           0        4.38       0.069
  WS02006239           JUNCTION      0.00   318.02     0  07:31           0        4.19       0.106
  WS02006251           JUNCTION      0.08   408.46     0  03:00     0.00217        4.41       0.002
  WS02006252           JUNCTION      0.00   400.00     0  03:20           0        4.24       0.002
  WS02006253           JUNCTION      1.22    35.36     0  02:19     0.00309       0.165      -0.081
  WS02006256           JUNCTION      0.00   300.00     0  00:00           0        3.05       0.077
  WS02004138           JUNCTION      0.00   285.00     0  00:00           0        5.76       0.063
  WS02004407           JUNCTION      0.00   469.87     0  02:42           0        6.89       0.090
  WS02006228           JUNCTION      0.00   466.84     0  02:36           0        7.05       0.157
  WS02006229           JUNCTION      0.00   466.83     0  02:36           0        7.06       0.149
  WS02006280           JUNCTION      0.00   183.59     0  02:20           0       0.839       0.008
  WS02006284           JUNCTION      0.10   183.58     0  02:20      0.0027        0.84       0.128
  WS02006287           JUNCTION      0.00   183.50     0  02:19           0       0.838       0.087
  WSF200               JUNCTION      0.00   468.22     0  02:45           0        6.77       0.059
  HS02004901           JUNCTION      9.93     9.93     0  02:11      0.0287      0.0288       6.491
  HS02004881           JUNCTION      4.02    34.42     0  02:19      0.0125       0.131       0.203
  HS02004876           JUNCTION      6.40    30.70     0  02:19       0.024       0.119       0.444
  HS02004870           JUNCTION      7.09    24.42     0  02:19      0.0237      0.0952       0.112
  HS02004862           JUNCTION      5.87    17.79     0  02:20      0.0293      0.0717       0.233
  HS02004856           JUNCTION      5.25    11.97     0  02:19      0.0178      0.0439       3.400
  HS02004852           JUNCTION      0.00     7.04     0  02:19           0      0.0261       0.193
  HS02004848           JUNCTION     11.67    11.67     0  02:23      0.0563      0.0563       0.077
  HS02004842           JUNCTION      0.00     5.01     0  02:33           0      0.0432      43.035
  HS02004837           JUNCTION     17.71    22.02     0  02:18        0.22        0.25       0.326
  HS02004830           JUNCTION      0.15    22.16     0  02:19     0.00423       0.241       0.514
  HS02004824           JUNCTION     13.17    35.16     0  02:23      0.0738       0.313       0.172
  HS02004817           JUNCTION      0.60    35.76     0  02:23      0.0169        0.33       5.323
  HS02004807           JUNCTION     13.33    47.90     0  02:21      0.0435       0.357       1.199
  HS02004802           JUNCTION      0.00    48.08     0  02:22           0       0.352       1.167
  HS02004799           JUNCTION     10.26   115.48     0  02:17      0.0352       0.431       0.529
  HS02004792           JUNCTION     45.89   105.43     0  02:17       0.155       0.396       0.104
  HS02004788           JUNCTION     15.60    61.36     0  02:18       0.096       0.243       0.161
  HS02004785           JUNCTION      0.15    46.16     0  02:17     0.00423       0.149       0.325
  HS02004777           JUNCTION      0.03    46.53     0  02:16    0.000846       0.149       3.603
  HS02004770           JUNCTION     38.85    47.67     0  02:13       0.123        0.15       2.114
  HS02004480           JUNCTION      0.00   136.23     0  02:18           0       0.502       0.143
  HS02004479           JUNCTION      0.00    21.13     0  02:20           0      0.0833       0.883
  HS02004478           JUNCTION      0.00   183.51     0  02:19           0       0.839       0.074
  YS02001745           JUNCTION     67.29    67.29     0  03:01       0.738       0.738       0.110
  YS02001748           JUNCTION      0.04   164.52     0  03:29     0.00127       0.979       0.022
  YS02001751           JUNCTION      0.01   211.03     0  03:30     0.00031        0.98       0.665
  YS02001754           JUNCTION      0.26   158.81     0  03:30     0.00733       0.914       1.507
  YS02001762           JUNCTION      0.00   110.02     0  03:31           0       0.828       2.183
  YS02001765           JUNCTION      0.00    97.66     0  02:50           0       0.825       2.352
  YS02001767           JUNCTION      0.54   107.88     0  03:20      0.0151       0.837       3.247
  YS02001770           JUNCTION     86.51   108.82     0  03:08       0.867       0.992       2.308
  YS02001774           JUNCTION      0.00    50.69     0  04:42           0       0.242       8.674
  YS02001779           JUNCTION      0.01    46.64     0  04:41    0.000141       0.098       9.263
  YS02001882           JUNCTION      0.00     3.52     0  02:08           0     0.00483      50.941
  YS02001884           JUNCTION      0.00    10.10     0  02:08           0      0.0194      32.583
  YS02001759           JUNCTION     84.46   185.93     0  03:21        0.81        1.61       1.265
  YS02001887           JUNCTION    111.00   111.00     0  02:47       0.971       0.981       0.724
  YS02001890           JUNCTION      0.00   110.34     0  02:49           0       0.958       0.814
  YS02001898           JUNCTION      0.00   109.88     0  02:52           0       0.947       0.224
  YS02001901           JUNCTION      0.00   109.76     0  02:52           0       0.946       0.575
  YS02001904           JUNCTION      0.00   109.38     0  02:53           0       0.945       0.535
  YS02001907           JUNCTION      0.00   199.93     0  03:02           0        2.02       1.096
  YS02001910           JUNCTION      0.00    91.19     0  03:01           0        1.08       0.932
  YS02001915           JUNCTION     60.35    90.96     0  03:01       0.633        1.09       0.408
  YS02001918           JUNCTION      0.00    30.87     0  03:03           0       0.457       0.233
  YS02001619           JUNCTION     58.67    58.67     0  03:01       0.624       0.625       0.410
  YS02001629           JUNCTION      0.00   117.55     0  03:32           0       0.633       1.658
  YS02001641           JUNCTION      0.00   165.43     0  03:29           0        1.26       1.324
  YS02001644           JUNCTION     63.90   202.12     0  03:18       0.708        1.95       1.050
  YS02001652           JUNCTION      0.00   138.46     0  03:31           0       0.918       1.473
  YS02001655           JUNCTION      0.15   203.76     0  03:27     0.00434        0.94       0.848
  YS02001920           JUNCTION      2.87    30.89     0  03:02      0.0809       0.459       0.431
  YS02001923           JUNCTION      0.04    28.02     0  03:02     0.00106       0.379       0.075
  YS02001926           JUNCTION      0.05    28.05     0  03:01     0.00147        0.38       0.541
  YS02001929           JUNCTION     28.02    28.02     0  03:01       0.378       0.378       0.073
  YS02001658           JUNCTION      0.00   152.28     0  04:01           0       0.935       0.032
  YS02001661           JUNCTION      0.00    78.70     0  02:49           0       0.709       0.100
  YS02001664           JUNCTION     78.70    78.70     0  02:49       0.709       0.709       0.023
  YS02001622           JUNCTION      0.00    85.32     0  03:34           0       0.627       1.277
  YS02001633           JUNCTION     64.95   135.92     0  03:03       0.729         1.3       1.907
  YS02001649           JUNCTION      0.00   313.70     0  03:21           0         2.8       1.103
  YS02001757           JUNCTION      0.00   507.54     0  03:26           0        5.01       1.730
  YS02001895           JUNCTION      0.00   110.03     0  02:51           0        0.95       0.381
  YS02001625           JUNCTION      0.00   123.54     0  03:56           0       0.657       3.516
  YS02163301           JUNCTION      0.00   105.05     0  03:29           0       0.592       2.936
  YS02163601           JUNCTION      0.11   162.33     0  03:34      0.0031        1.27       1.927
  YS02164001           JUNCTION      0.00   166.21     0  03:30           0        1.26       1.235
  YS02001647           JUNCTION      0.00   210.16     0  03:27           0        1.91       0.931
  YSB1154              JUNCTION     11.38    11.38     0  02:16      0.0427       0.044       3.391
  YSB6556              JUNCTION      0.00    11.39     0  02:18           0      0.0451       2.843
  YSB1174              JUNCTION     11.29    11.29     0  02:10      0.0311      0.0322       4.157
  YSB1171              JUNCTION      0.00    21.15     0  02:17           0      0.0828       8.267
  YS02006553           JUNCTION      0.00   200.28     0  03:02           0        2.01       0.711
  YS02006561           JUNCTION      0.00   293.07     0  03:00           0        2.84       0.022
  YS02006556           JUNCTION      0.00   200.57     0  03:03           0        2.01       0.513
  YS02006558           JUNCTION     94.15   293.08     0  02:59       0.884        2.87       0.156
  YS02001783           JUNCTION      0.00   293.07     0  03:00           0        2.84       0.052
  YS02001784           JUNCTION      1.06   294.13     0  02:59      0.0299        2.87       0.086
  YS02001786           JUNCTION      0.06   294.18     0  03:00     0.00159        2.87       0.083
  YS02001788           JUNCTION      0.07   294.24     0  03:00       0.002        2.87       0.048
  YS02001790           JUNCTION      0.15   294.40     0  03:00     0.00437        2.87       0.060
  YS02001791           JUNCTION      0.00   294.39     0  03:00           0        2.87       0.030
  YS02001793           JUNCTION      0.00   294.40     0  03:00           0        2.87       0.013
  WS02004139           JUNCTION      0.32   290.40     0  00:00     0.00905        5.76       0.460
  WSC                  OUTFALL       0.00   751.46     0  03:14           0          13       0.000
  3                    OUTFALL       0.00   239.66     0  00:00           0        1.23       0.000
  4                    OUTFALL       0.00   104.20     0  03:24           0       0.217       0.000
  5                    OUTFALL       0.00     0.00     0  00:00           0           0       0.000 ltr
  JK-storage           STORAGE       0.00   294.40     0  03:01           0        3.02      -0.900
  CC-storage           STORAGE       0.00   489.61     0  03:03           0        4.75      -0.026
  XR-storage           STORAGE     309.18   309.18     0  03:01        6.88        7.48      -0.002
  
  
  **********************
  Node Surcharge Summary
  **********************
  
  Surcharging occurs when water rises above the top of the highest conduit.
  ---------------------------------------------------------------------
                                               Max. Height   Min. Depth
                                   Hours       Above Crown    Below Rim
  Node                 Type      Surcharged         Meters       Meters
  ---------------------------------------------------------------------
  WS02006109           JUNCTION        1.24          0.072        1.748
  WS02006232           JUNCTION        1.55          0.056        1.424
  WS02006235           JUNCTION        0.42          0.028        1.262
  WS02006238           JUNCTION        0.74          0.047        1.383
  WS02006242           JUNCTION        0.40          0.039        0.781
  WS02006239           JUNCTION        0.12          0.002        1.288
  WS02006252           JUNCTION        1.95          0.185        0.915
  WS02006228           JUNCTION        1.16          0.139        2.061
  YS02001762           JUNCTION        0.97          0.075        1.075
  YS02001765           JUNCTION        0.02          0.021        1.079
  YS02001774           JUNCTION        0.17          0.032        1.018
  YS02001759           JUNCTION        2.70          0.098        1.112
  YS02001641           JUNCTION        0.08          0.034        1.066
  YS02001644           JUNCTION        0.14          0.032        0.888
  YS02001649           JUNCTION        1.80          0.051        0.999
  YS02001757           JUNCTION        4.11          0.186        1.024
  YS02163601           JUNCTION        1.36          0.059        1.021
  
  
  *********************
  Node Flooding Summary
  *********************
  
  Flooding refers to all water that overflows a node, whether it ponds or not.
  --------------------------------------------------------------------------
                                                             Total   Maximum
                                 Maximum   Time of Max       Flood    Ponded
                        Hours       Rate    Occurrence      Volume     Depth
  Node                 Flooded       LPS   days hr:min    10^6 ltr    Meters
  --------------------------------------------------------------------------
  XR-storage              2.90    198.09      0  03:20       0.792     0.000
  
  
  **********************
  Storage Volume Summary
  **********************
  
  --------------------------------------------------------------------------------------------------
                         Average     Avg  Evap Exfil       Maximum     Max    Time of Max    Maximum
                          Volume    Pcnt  Pcnt  Pcnt        Volume    Pcnt     Occurrence    Outflow
  Storage Unit           1000 m3    Full  Loss  Loss       1000 m3    Full    days hr:min        LPS
  --------------------------------------------------------------------------------------------------
  JK-storage               0.002       1     0     0         0.151      52       0  00:00     300.00
  CC-storage               0.683       4     0     0         1.127       7       0  04:41     400.00
  XR-storage               0.869      94     0     0         0.926     100       0  03:19     285.00
  
  
  ***********************
  Outfall Loading Summary
  ***********************
  
  -----------------------------------------------------------
                         Flow       Avg       Max       Total
                         Freq      Flow      Flow      Volume
  Outfall Node           Pcnt       LPS       LPS    10^6 ltr
  -----------------------------------------------------------
  WSC                   99.99    531.21    751.46      13.041
  3                     69.16     88.49    239.66       1.234
  4                     30.08     33.97    104.20       0.217
  5                      0.00      0.00      0.00       0.000
  -----------------------------------------------------------
  System                49.81    653.67    961.38      14.492
  
  
  ********************
  Link Flow Summary
  ********************
  
  -----------------------------------------------------------------------------
                                 Maximum  Time of Max   Maximum    Max/    Max/
                                  |Flow|   Occurrence   |Veloc|    Full    Full
  Link                 Type          LPS  days hr:min     m/sec    Flow   Depth
  -----------------------------------------------------------------------------
  WS02003066WSF200     CONDUIT    468.22     0  02:45      2.69    0.08    0.21
  WS02006287WS02006284 CONDUIT    183.49     0  02:20      1.56    0.09    0.21
  WS02006284WS02006280 CONDUIT    183.59     0  02:20      1.80    0.08    0.19
  WS02006280WS02006229 CONDUIT    183.59     0  02:20      2.89    0.04    0.14
  WS02006229WS02006228 CONDUIT    466.84     0  02:36      0.93    1.55    1.00
  WS02006256WS02006235 CONDUIT    166.25     0  00:01      2.58    1.76    1.00
  WS02006253WS02006251 CONDUIT     35.53     0  02:20      0.47    0.11    0.90
  WS02006252WS02006251 CONDUIT    400.08     0  03:00      3.18    1.47    1.00
  WS02006251WS02006249 CONDUIT    407.63     0  03:24      1.18    1.18    0.88
  WS02006249WS02006248 CONDUIT    355.08     0  03:00      1.14    1.95    0.83
  WS02006248WS02006247 CONDUIT    348.90     0  03:00      1.10    0.76    0.87
  WS02006247WS02006245 CONDUIT    341.15     0  03:00      1.06    2.71    0.91
  WS02006245WS02006243 CONDUIT    335.43     0  03:01      1.07    0.99    0.92
  WS02006243WS02006242 CONDUIT    325.85     0  07:31      0.92    0.70    0.97
  WS02006242WS02006240 CONDUIT    322.18     0  07:31      0.87    1.28    0.99
  WS02006240WS02006239 CONDUIT    318.02     0  07:31      0.88    1.00    1.00
  WS02006239WS02006238 CONDUIT    316.05     0  07:31      0.83    1.01    1.00
  WS02006238WS02006235 CONDUIT    316.14     0  07:31      1.25    0.71    1.00
  WS02006235WS02006234 CONDUIT    380.87     0  04:22      1.01    4.02    0.99
  WS02006234WS02006232 CONDUIT    380.02     0  03:31      1.13    0.77    1.00
  WS02006232WS02006231 CONDUIT    380.05     0  03:31      1.04    0.80    0.93
  WS02006231WS02006230 CONDUIT    380.25     0  03:31      1.33    5.77    0.82
  WS02006230WS02006229 CONDUIT    390.87     0  03:32      1.02    8.70    1.00
  WS02006228WS02006109 CONDUIT    466.84     0  02:36      0.93    2.04    1.00
  WS02006116WS02004401 CONDUIT    470.07     0  02:39      0.73    0.65    0.79
  WS02006115WS02006116 CONDUIT    470.59     0  02:39      0.82    0.60    0.70
  WS02006113WS02006111 CONDUIT    482.48     0  02:37      2.34    0.58    0.43
  WS02006112WS02006115 CONDUIT    471.61     0  02:37      0.69    0.28    0.83
  WS02006111WS02006112 CONDUIT    469.92     0  02:37      1.33    0.22    0.66
  WS02006110WS02006113 CONDUIT    468.18     0  02:36      1.14    0.43    0.76
  WS02006109WS02006110 CONDUIT    468.07     0  02:36      0.94    0.90    0.97
  WS02004411WS02004412 CONDUIT    468.49     0  02:43      0.86    0.67    0.65
  WS02004401WS02004402 CONDUIT    469.80     0  02:40      0.77    0.56    0.81
  WS02004413WS02003067 CONDUIT    468.20     0  02:44      1.03    0.20    0.56
  WS02004412WS02004413 CONDUIT    468.29     0  02:44      0.75    0.31    0.74
  WS02004410WS02004411 CONDUIT    468.80     0  02:43      0.88    0.64    0.64
  WS02004409WS02004410 CONDUIT    469.26     0  02:42      0.91    0.61    0.63
  WS02004407WS02004409 CONDUIT    469.85     0  02:42      1.40    0.17    0.45
  WS02004406WS02004407 CONDUIT    469.87     0  02:42      0.96    0.21    0.60
  WS02004405WS02004406 CONDUIT    469.92     0  02:42      0.66    0.93    0.92
  WS02004404WS02004405 CONDUIT    469.88     0  02:41      0.84    4.60    0.92
  WS02004403WS02004404 CONDUIT    469.72     0  02:41      0.74    0.34    0.88
  WS02004402WS02004403 CONDUIT    469.76     0  02:41      0.75    0.67    0.84
  WS02004139WS02001211 CONDUIT    286.32     0  04:00      0.81    0.36    0.53
  WS02004138WS02004139 CONDUIT    290.07     0  00:00      3.33    0.06    0.38
  WS02003067WS02003066 CONDUIT    468.22     0  02:44      1.12    0.15    0.40
  WS02001213WS02003059 CONDUIT    298.20     0  04:00      0.80    0.49    0.70
  WS02001212WS02001213 CONDUIT    295.98     0  04:00      1.19    0.46    0.39
  WS02001211WS02001212 CONDUIT    294.85     0  03:59      0.67    0.23    0.57
  WS02003072WS02003073 CONDUIT    750.02     0  03:14      1.60    1.62    0.43
  WS02003069WS02003072 CONDUIT    750.29     0  03:13      1.51    0.36    0.45
  WS02003060WS02003069 CONDUIT    750.33     0  03:12      1.77    0.29    0.40
  WS02003059WS02003060 CONDUIT    301.31     0  04:00      0.82    0.20    0.59
  HS02004901HS02004770 CONDUIT      9.11     0  02:16      0.04    0.03    0.31
  HS02004876HS02004881 CONDUIT     30.74     0  02:20      0.52    0.33    0.09
  HS02004870HS02004876 CONDUIT     24.40     0  02:20      0.36    0.02    0.10
  HS02004842HS02004848 CONDUIT      5.01     0  02:33      0.03    0.00    0.27
  HS02004837HS02004842 CONDUIT      5.17     0  02:33      0.41    0.00    0.29
  HS02004830HS02004837 CONDUIT     22.01     0  02:19      0.43    0.02    0.07
  HS02004824HS02004830 CONDUIT     22.16     0  02:20      0.47    0.03    0.07
  HS02004817HS02004824 CONDUIT     35.16     0  02:23      0.17    0.02    0.39
  HS02004770HS02004777 CONDUIT     46.50     0  02:16      0.21    0.09    0.32
  HS02004799HS02004480 CONDUIT    115.32     0  02:17      0.56    0.15    0.30
  HS02004792HS02004799 CONDUIT    105.38     0  02:17      0.64    0.06    0.23
  HS02004788HS02004792 CONDUIT     61.31     0  02:18      0.80    0.04    0.11
  HS02004785HS02004788 CONDUIT     46.03     0  02:18      0.48    0.35    0.14
  HS02004777HS02004785 CONDUIT     46.01     0  02:17      0.25    0.06    0.26
  HS02004480HS02004478 CONDUIT    136.18     0  02:19      0.92    0.57    0.21
  HS02004479HS02004480 CONDUIT     21.30     0  02:21      0.16    0.02    0.29
  HS02004862HS02004870 CONDUIT     17.76     0  02:21      0.44    0.02    0.06
  HS02004848HS02004852 CONDUIT      7.04     0  02:19      0.29    0.01    0.03
  HS02004856HS02004862 CONDUIT     11.94     0  02:20      0.32    0.01    0.05
  HS02004852HS02004856 CONDUIT      7.01     0  02:21      0.11    0.01    0.09
  HS02004802HS02004478 CONDUIT     48.34     0  02:23      0.29    0.04    0.24
  HS02004478WS02006287 CONDUIT    183.50     0  02:19      1.26    0.05    0.16
  HS02004817HS02004807 CONDUIT     36.17     0  02:25      0.10    0.02    0.50
  HS02004807HS02004802 CONDUIT     48.08     0  02:22      0.24    0.09    0.29
  YS02001759YS02001757 CONDUIT    184.09     0  03:21      0.23    0.13    1.00
  YS02001762YS02001759 CONDUIT    117.65     0  03:21      0.18    0.14    1.00
  YS02001765YS02001762 CONDUIT    110.02     0  03:31      0.23    0.10    1.00
  YS02001770YS02001767 CONDUIT    107.35     0  03:20      0.31    0.43    0.96
  YS02001774YS02001770 CONDUIT     57.91     0  04:42      0.14    0.04    0.96
  YS02001779YS02001774 CONDUIT     46.64     0  04:41      0.08    0.02    0.89
  YS02001649YS02001757 CONDUIT    334.45     0  03:26      0.43    0.20    1.00
  YS02001767YS02001765 CONDUIT     97.66     0  02:50      0.25    0.12    0.99
  YS02006561YS02001783 CONDUIT    293.07     0  03:00      1.75    0.15    0.37
  YS02001783YS02001784 CONDUIT    293.07     0  02:59      1.21    0.40    0.49
  YS02001784YS02001785 CONDUIT    294.12     0  03:00      1.28    0.68    0.47
  YS02001788YS02001790 CONDUIT    294.25     0  03:00      1.84    0.22    0.35
  YS02001790YS02001791 CONDUIT    294.39     0  03:00      2.13    0.32    0.32
  YS02001791YS02001793 CONDUIT    294.40     0  03:00      3.87    0.13    0.21
  YS02001910YS02001907 CONDUIT     91.28     0  03:02      0.49    0.05    0.72
  YS02001786YS02001788 CONDUIT    294.17     0  03:00      1.71    0.57    0.37
  YS02001915YS02001910 CONDUIT     91.19     0  03:01      0.44    0.05    0.51
  YS02001918YS02001915 CONDUIT     30.85     0  03:03      0.44    0.02    0.25
  YS02001923YS02001920 CONDUIT     28.02     0  03:02      0.43    0.01    0.14
  YS02001926YS02001923 CONDUIT     27.98     0  03:02      0.47    0.04    0.13
  YS02001929YS02001926 CONDUIT     28.00     0  03:01      0.50    0.01    0.12
  YS02001920YS02001918 CONDUIT     30.87     0  03:03      0.45    0.03    0.14
  YS02001629YS02163301 CONDUIT    105.05     0  03:29      0.15    0.13    0.92
  YS02001619YS02001622 CONDUIT     85.32     0  03:34      0.63    0.13    0.53
  YS02001622YS02001625 CONDUIT     95.26     0  03:31      0.24    0.05    0.69
  YS02001625YS02001629 CONDUIT    117.55     0  03:32      0.24    0.06    0.67
  YS02163301YS02001633 CONDUIT     75.61     0  03:25      0.10    0.07    0.97
  YS02163601YS02164001 CONDUIT    166.21     0  03:30      0.22    0.15    1.00
  YS02164001YS02001641 CONDUIT    165.43     0  03:29      0.22    0.23    1.00
  YS02001641YS02001644 CONDUIT    145.85     0  03:18      0.19    0.47    1.00
  YS02001647YS02001649 CONDUIT    224.65     0  03:24      0.31    0.12    0.92
  YS02006553YS02006556 CONDUIT    200.57     0  03:03      0.30    0.17    0.80
  YS02006556YS02006558 CONDUIT    200.76     0  03:03      0.29    0.16    0.83
  YSB6556YSB1171       CONDUIT     11.53     0  02:21      0.05    0.01    0.56
  YS02001907YS02006553 CONDUIT    200.28     0  03:02      0.24    0.24    0.91
  YS02006558YS02006561 CONDUIT    293.07     0  03:00      2.25    0.65    0.47
  YS02001633YS02163601 CONDUIT    162.22     0  03:34      0.21    0.17    0.99
  YS02001644YS02001647 CONDUIT    210.16     0  03:27      0.30    0.12    0.92
  YS02001745YS02001748 CONDUIT     67.28     0  03:01      1.38    0.03    0.20
  YS02001748YS02001751 CONDUIT    211.02     0  03:30      1.06    0.11    0.45
  YS02001751YS02001754 CONDUIT     83.50     0  03:05      0.94    0.04    0.71
  YS02001754YS02001757 CONDUIT    194.19     0  03:32      0.33    0.08    0.93
  YS02001882YS02001884 CONDUIT      3.52     0  02:08      0.06    0.00    0.45
  YS02001884YS02001887 CONDUIT     10.10     0  02:08      0.06    0.01    0.54
  YS02001890YS02001895 CONDUIT    110.03     0  02:51      0.28    0.05    0.51
  YS02001895YS02001898 CONDUIT    109.88     0  02:52      0.47    0.19    0.37
  YS02001898YS02001901 CONDUIT    109.76     0  02:52      0.32    0.07    0.45
  YS02001901YS02001904 CONDUIT    109.38     0  02:53      0.28    0.17    0.50
  YS02001904YS02001907 CONDUIT    109.43     0  02:55      0.20    0.04    0.66
  YS02001887YS02001890 CONDUIT    110.34     0  02:49      0.23    0.19    0.59
  YS02001652YS02001649 CONDUIT    187.79     0  03:26      0.31    0.09    0.94
  YS02001655YS02001652 CONDUIT    110.32     0  03:21      1.01    0.05    0.74
  YS02001658YS02001655 CONDUIT    203.61     0  03:27      1.22    0.09    0.44
  YS02001661YS02001658 CONDUIT     78.70     0  02:50      1.42    0.03    0.20
  YS02001664YS02001661 CONDUIT     78.70     0  02:49      1.07    0.02    0.15
  YSB1154YSB6556       CONDUIT     11.39     0  02:18      0.19    0.02    0.45
  YSB1174YSB1171       CONDUIT     10.51     0  02:12      0.05    0.02    0.56
  YSB1171HS02004479    CONDUIT     21.13     0  02:20      0.54    0.01    0.43
  HS02004881HS02006253 CONDUIT     34.42     0  02:19      1.59    0.01    0.23
  YS02001793JiankangQianchi CONDUIT    294.40     0  03:01     12.94    0.02    0.50
  YS02001757CaochengTiaoxuchi CONDUIT    489.61     0  03:03      1.03    0.22    0.70
  WSF200WS02003060     CONDUIT    467.92     0  02:45      1.77    0.10    0.30
  1                    CONDUIT    751.46     0  03:14      3.08    0.26    0.35
  2                    CONDUIT    104.20     0  03:24      4.90    0.25    0.34
  3                    CONDUIT    239.66     0  00:00      8.18    0.38    0.45
  4                    CONDUIT      0.00     0  00:00      0.00    0.00    0.00
  CC-Pump-1            PUMP       200.00     0  03:00              1.00
  CC-Pump-2            PUMP       200.00     0  03:20              1.00
  JK-Pump-1            PUMP         0.00     0  00:00              0.00
  JK-Pump-2            PUMP       300.00     0  00:00              1.00
  XR-Pump-1            PUMP        95.00     0  00:00              1.00
  XR-Pump-2            PUMP        95.00     0  00:00              1.00
  XR-Pump-3            PUMP         0.00     0  00:00              0.00
  XR-Pump-4            PUMP        95.00     0  00:00              1.00
  
  
  ***************************
  Flow Classification Summary
  ***************************
  
  -------------------------------------------------------------------------------------
                      Adjusted    ---------- Fraction of Time in Flow Class ---------- 
                       /Actual         Up    Down  Sub   Sup   Up    Down  Norm  Inlet 
  Conduit               Length    Dry  Dry   Dry   Crit  Crit  Crit  Crit  Ltd   Ctrl  
  -------------------------------------------------------------------------------------
  WS02003066WSF200        1.00   0.07  0.00  0.00  0.00  0.93  0.00  0.00  0.75  0.00
  WS02006287WS02006284    1.00   0.04  0.02  0.00  0.69  0.25  0.00  0.00  0.78  0.00
  WS02006284WS02006280    1.00   0.05  0.00  0.00  0.00  0.00  0.00  0.95  0.00  0.00
  WS02006280WS02006229    1.00   0.05  0.00  0.00  0.00  0.00  0.00  0.95  0.00  0.00
  WS02006229WS02006228    1.00   0.00  0.00  0.00  0.99  0.00  0.00  0.01  0.00  0.00
  WS02006256WS02006235    1.00   0.00  0.00  0.00  1.00  0.00  0.00  0.00  0.00  0.00
  WS02006253WS02006251    1.00   0.03  0.01  0.00  0.95  0.00  0.00  0.00  0.00  0.00
  WS02006252WS02006251    1.00   0.09  0.00  0.00  0.00  0.00  0.91  0.00  0.00  0.00
  WS02006251WS02006249    1.00   0.00  0.00  0.00  1.00  0.00  0.00  0.00  0.30  0.00
  WS02006249WS02006248    1.00   0.00  0.02  0.00  0.89  0.00  0.08  0.00  0.00  0.00
  WS02006248WS02006247    1.00   0.03  0.00  0.00  0.97  0.00  0.00  0.00  0.19  0.00
  WS02006247WS02006245    1.00   0.02  0.00  0.00  0.98  0.00  0.00  0.00  0.00  0.00
  WS02006245WS02006243    1.00   0.01  0.00  0.00  0.94  0.00  0.00  0.05  0.01  0.00
  WS02006243WS02006242    1.00   0.01  0.00  0.00  0.99  0.00  0.00  0.00  0.27  0.00
  WS02006242WS02006240    1.00   0.00  0.00  0.00  1.00  0.00  0.00  0.00  0.00  0.00
  WS02006240WS02006239    1.00   0.00  0.00  0.00  0.95  0.00  0.00  0.05  0.01  0.00
  WS02006239WS02006238    1.00   0.00  0.00  0.00  1.00  0.00  0.00  0.00  0.01  0.00
  WS02006238WS02006235    1.00   0.00  0.00  0.00  1.00  0.00  0.00  0.00  0.00  0.00
  WS02006235WS02006234    1.00   0.00  0.00  0.00  0.95  0.00  0.05  0.00  0.00  0.00
  WS02006234WS02006232    1.00   0.00  0.00  0.00  1.00  0.00  0.00  0.00  0.17  0.00
  WS02006232WS02006231    1.00   0.00  0.00  0.00  0.99  0.00  0.00  0.00  0.00  0.00
  WS02006231WS02006230    1.00   0.00  0.00  0.00  0.54  0.00  0.46  0.00  0.00  0.00
  WS02006230WS02006229    1.00   0.00  0.00  0.00  0.98  0.00  0.00  0.02  0.01  0.00
  WS02006228WS02006109    1.00   0.00  0.00  0.00  1.00  0.00  0.00  0.00  0.00  0.00
  WS02006116WS02004401    1.00   0.03  0.00  0.00  0.97  0.00  0.00  0.00  0.00  0.00
  WS02006115WS02006116    1.00   0.03  0.00  0.00  0.97  0.00  0.00  0.01  0.00  0.00
  WS02006113WS02006111    1.00   0.02  0.00  0.00  0.00  0.98  0.00  0.00  0.13  0.00
  WS02006112WS02006115    1.00   0.02  0.00  0.00  0.97  0.00  0.00  0.00  0.00  0.00
  WS02006111WS02006112    1.00   0.02  0.00  0.00  0.97  0.00  0.00  0.00  0.98  0.00
  WS02006110WS02006113    1.00   0.01  0.01  0.00  0.98  0.00  0.00  0.00  0.00  0.00
  WS02006109WS02006110    1.00   0.00  0.01  0.00  0.98  0.00  0.01  0.00  0.00  0.00
  WS02004411WS02004412    1.00   0.04  0.00  0.00  0.96  0.00  0.00  0.00  0.00  0.00
  WS02004401WS02004402    1.00   0.03  0.00  0.00  0.97  0.00  0.00  0.00  0.00  0.00
  WS02004413WS02003067    1.00   0.04  0.02  0.00  0.00  0.00  0.94  0.00  0.00  0.00
  WS02004412WS02004413    1.00   0.04  0.00  0.00  0.96  0.00  0.00  0.00  0.03  0.00
  WS02004410WS02004411    1.00   0.04  0.00  0.00  0.96  0.00  0.00  0.00  0.04  0.00
  WS02004409WS02004410    1.00   0.04  0.00  0.00  0.96  0.00  0.00  0.00  0.04  0.00
  WS02004407WS02004409    1.00   0.04  0.00  0.00  0.96  0.00  0.00  0.00  0.89  0.00
  WS02004406WS02004407    1.00   0.00  0.04  0.00  0.96  0.00  0.00  0.00  0.00  0.00
  WS02004405WS02004406    1.00   0.00  0.00  0.00  1.00  0.00  0.00  0.00  0.00  0.00
  WS02004404WS02004405    1.00   0.00  0.00  0.00  1.00  0.00  0.00  0.00  0.00  0.00
  WS02004403WS02004404    1.00   0.00  0.03  0.00  0.97  0.00  0.00  0.00  0.01  0.00
  WS02004402WS02004403    1.00   0.03  0.00  0.00  0.97  0.00  0.00  0.00  0.00  0.00
  WS02004139WS02001211    1.00   0.00  0.00  0.00  1.00  0.00  0.00  0.00  0.00  0.00
  WS02004138WS02004139    1.00   0.00  0.00  0.00  0.99  0.01  0.00  0.00  1.00  0.00
  WS02003067WS02003066    1.00   0.06  0.00  0.00  0.94  0.00  0.00  0.00  0.00  0.00
  WS02001213WS02003059    1.00   0.00  0.00  0.00  0.99  0.00  0.00  0.00  0.00  0.00
  WS02001212WS02001213    1.00   0.00  0.00  0.00  0.83  0.00  0.17  0.00  0.00  0.00
  WS02001211WS02001212    1.00   0.00  0.00  0.00  1.00  0.00  0.00  0.00  0.00  0.00
  WS02003072WS02003073    1.00   0.00  0.00  0.00  0.00  0.00  0.00  1.00  0.00  0.00
  WS02003069WS02003072    1.00   0.00  0.00  0.00  0.99  0.01  0.00  0.00  0.31  0.00
  WS02003060WS02003069    1.00   0.00  0.00  0.00  0.97  0.03  0.00  0.00  0.16  0.00
  WS02003059WS02003060    1.00   0.00  0.00  0.00  1.00  0.00  0.00  0.00  0.01  0.00
  HS02004901HS02004770    1.00   0.05  0.00  0.00  0.95  0.00  0.00  0.00  0.02  0.00
  HS02004876HS02004881    1.00   0.02  0.00  0.00  0.98  0.00  0.00  0.00  0.00  0.00
  HS02004870HS02004876    1.00   0.01  0.00  0.00  0.99  0.00  0.00  0.00  0.95  0.00
  HS02004842HS02004848    1.00   0.00  0.05  0.00  0.95  0.00  0.00  0.00  0.69  0.00
  HS02004837HS02004842    1.00   0.00  0.00  0.00  0.99  0.01  0.00  0.00  0.11  0.00
  HS02004830HS02004837    1.00   0.00  0.00  0.00  1.00  0.00  0.00  0.00  0.99  0.00
  HS02004824HS02004830    1.00   0.00  0.00  0.00  1.00  0.00  0.00  0.00  0.00  0.00
  HS02004817HS02004824    1.00   0.00  0.00  0.00  1.00  0.00  0.00  0.00  1.00  0.00
  HS02004770HS02004777    1.00   0.00  0.05  0.00  0.95  0.00  0.00  0.00  0.07  0.00
  HS02004799HS02004480    1.00   0.00  0.03  0.00  0.94  0.00  0.03  0.00  0.00  0.00
  HS02004792HS02004799    1.00   0.00  0.00  0.00  0.98  0.02  0.00  0.00  0.98  0.00
  HS02004788HS02004792    1.00   0.00  0.00  0.00  0.99  0.01  0.00  0.00  0.98  0.00
  HS02004785HS02004788    1.00   0.00  0.00  0.00  1.00  0.00  0.00  0.00  0.00  0.00
  HS02004777HS02004785    1.00   0.00  0.00  0.00  1.00  0.00  0.00  0.00  0.21  0.00
  HS02004480HS02004478    1.00   0.05  0.00  0.00  0.73  0.00  0.00  0.22  0.00  0.00
  HS02004479HS02004480    1.00   0.03  0.00  0.00  0.97  0.00  0.00  0.00  0.16  0.00
  HS02004862HS02004870    1.00   0.00  0.00  0.00  1.00  0.00  0.00  0.00  0.06  0.00
  HS02004848HS02004852    1.00   0.05  0.00  0.00  0.95  0.00  0.00  0.00  0.70  0.00
  HS02004856HS02004862    1.00   0.00  0.07  0.00  0.93  0.00  0.00  0.00  0.74  0.00
  HS02004852HS02004856    1.00   0.05  0.01  0.00  0.95  0.00  0.00  0.00  0.83  0.00
  HS02004802HS02004478    1.00   0.05  0.01  0.00  0.95  0.00  0.00  0.00  0.01  0.00
  HS02004478WS02006287    1.00   0.06  0.00  0.00  0.89  0.05  0.00  0.00  0.80  0.00
  HS02004817HS02004807    1.00   0.00  0.05  0.00  0.95  0.00  0.00  0.00  0.00  0.00
  HS02004807HS02004802    1.00   0.05  0.00  0.00  0.95  0.00  0.00  0.00  0.01  0.00
  YS02001759YS02001757    1.00   0.00  0.00  0.00  1.00  0.00  0.00  0.00  0.17  0.00
  YS02001762YS02001759    1.00   0.00  0.00  0.00  1.00  0.00  0.00  0.00  0.04  0.00
  YS02001765YS02001762    1.00   0.00  0.00  0.00  1.00  0.00  0.00  0.00  0.22  0.00
  YS02001770YS02001767    1.00   0.00  0.00  0.00  1.00  0.00  0.00  0.00  0.00  0.00
  YS02001774YS02001770    1.00   0.00  0.05  0.00  0.94  0.00  0.00  0.00  0.07  0.00
  YS02001779YS02001774    1.00   0.00  0.00  0.00  1.00  0.00  0.00  0.00  0.27  0.00
  YS02001649YS02001757    1.00   0.00  0.00  0.00  1.00  0.00  0.00  0.00  0.19  0.00
  YS02001767YS02001765    1.00   0.00  0.00  0.00  1.00  0.00  0.00  0.00  0.01  0.00
  YS02006561YS02001783    1.00   0.07  0.00  0.00  0.00  0.93  0.00  0.00  0.73  0.00
  YS02001783YS02001784    1.00   0.00  0.07  0.00  0.93  0.00  0.00  0.00  0.00  0.00
  YS02001784YS02001785    1.00   0.00  0.00  0.00  1.00  0.00  0.00  0.00  0.25  0.00
  YS02001788YS02001790    1.00   0.00  0.00  0.00  0.08  0.92  0.00  0.00  0.79  0.00
  YS02001790YS02001791    1.00   0.00  0.00  0.00  0.02  0.98  0.00  0.00  0.52  0.00
  YS02001791YS02001793    1.00   0.00  0.00  0.00  0.00  1.00  0.00  0.00  0.00  0.00
  YS02001910YS02001907    1.00   0.00  0.00  0.00  0.97  0.00  0.00  0.03  0.13  0.00
  YS02001786YS02001788    1.00   0.00  0.00  0.00  0.08  0.92  0.00  0.00  0.00  0.00
  YS02001915YS02001910    1.00   0.00  0.00  0.00  0.99  0.01  0.00  0.00  0.24  0.00
  YS02001918YS02001915    1.00   0.00  0.01  0.00  0.98  0.02  0.00  0.00  0.81  0.00
  YS02001923YS02001920    1.00   0.00  0.00  0.00  1.00  0.00  0.00  0.00  1.00  0.00
  YS02001926YS02001923    1.00   0.00  0.04  0.00  0.00  0.00  0.96  0.00  0.00  0.00
  YS02001929YS02001926    1.00   0.00  0.05  0.00  0.95  0.00  0.00  0.00  0.87  0.00
  YS02001920YS02001918    1.00   0.00  0.01  0.00  0.99  0.00  0.00  0.00  0.00  0.00
  YS02001629YS02163301    1.00   0.06  0.00  0.00  0.93  0.00  0.00  0.00  0.00  0.00
  YS02001619YS02001622    1.00   0.05  0.00  0.00  0.95  0.00  0.00  0.00  0.00  0.00
  YS02001622YS02001625    1.00   0.05  0.00  0.00  0.95  0.00  0.00  0.00  0.13  0.00
  YS02001625YS02001629    1.00   0.05  0.03  0.00  0.91  0.00  0.01  0.00  0.00  0.00
  YS02163301YS02001633    1.00   0.00  0.06  0.00  0.94  0.00  0.00  0.00  0.00  0.00
  YS02163601YS02164001    1.00   0.00  0.04  0.00  0.96  0.00  0.00  0.00  0.00  0.00
  YS02164001YS02001641    1.00   0.01  0.03  0.00  0.96  0.00  0.00  0.00  0.07  0.00
  YS02001641YS02001644    1.00   0.00  0.01  0.00  0.99  0.00  0.00  0.00  0.00  0.00
  YS02001647YS02001649    1.00   0.00  0.07  0.00  0.93  0.00  0.00  0.00  0.01  0.00
  YS02006553YS02006556    1.00   0.02  0.00  0.00  0.98  0.00  0.00  0.00  0.03  0.00
  YS02006556YS02006558    1.00   0.00  0.00  0.00  1.00  0.00  0.00  0.00  0.00  0.00
  YSB6556YSB1171          1.00   0.03  0.02  0.00  0.95  0.00  0.00  0.00  0.00  0.00
  YS02001907YS02006553    1.00   0.00  0.02  0.00  0.97  0.00  0.00  0.00  0.00  0.00
  YS02006558YS02006561    1.00   0.07  0.00  0.00  0.00  0.93  0.00  0.00  0.72  0.00
  YS02001633YS02163601    1.00   0.00  0.01  0.00  0.99  0.00  0.00  0.00  0.20  0.00
  YS02001644YS02001647    1.00   0.00  0.07  0.00  0.93  0.00  0.00  0.00  0.00  0.00
  YS02001745YS02001748    1.00   0.00  0.00  0.00  0.70  0.12  0.00  0.18  0.61  0.00
  YS02001748YS02001751    1.00   0.00  0.00  0.00  0.98  0.02  0.00  0.00  0.25  0.00
  YS02001751YS02001754    1.00   0.00  0.00  0.00  0.92  0.00  0.00  0.08  0.02  0.00
  YS02001754YS02001757    1.00   0.00  0.00  0.00  0.99  0.01  0.00  0.00  0.26  0.00
  YS02001882YS02001884    1.00   0.06  0.00  0.00  0.93  0.00  0.00  0.00  0.00  0.00
  YS02001884YS02001887    1.00   0.03  0.01  0.00  0.96  0.00  0.00  0.00  0.00  0.00
  YS02001890YS02001895    1.00   0.00  0.06  0.00  0.93  0.00  0.00  0.00  0.00  0.00
  YS02001895YS02001898    1.00   0.07  0.00  0.00  0.92  0.00  0.01  0.00  0.00  0.00
  YS02001898YS02001901    1.00   0.07  0.00  0.00  0.93  0.00  0.00  0.00  0.02  0.00
  YS02001901YS02001904    1.00   0.06  0.00  0.00  0.94  0.00  0.00  0.00  0.00  0.00
  YS02001904YS02001907    1.00   0.00  0.06  0.00  0.94  0.00  0.00  0.00  0.00  0.00
  YS02001887YS02001890    1.00   0.00  0.00  0.00  0.97  0.00  0.03  0.00  0.00  0.00
  YS02001652YS02001649    1.00   0.00  0.00  0.00  1.00  0.00  0.00  0.00  0.26  0.00
  YS02001655YS02001652    1.00   0.00  0.00  0.00  0.92  0.00  0.00  0.08  0.02  0.00
  YS02001658YS02001655    1.00   0.00  0.06  0.00  0.92  0.03  0.00  0.00  0.18  0.00
  YS02001661YS02001658    1.00   0.06  0.00  0.00  0.80  0.14  0.00  0.00  0.73  0.00
  YS02001664YS02001661    1.00   0.05  0.00  0.00  0.77  0.18  0.00  0.00  0.86  0.00
  YSB1154YSB6556          1.00   0.05  0.00  0.00  0.95  0.00  0.00  0.00  0.02  0.00
  YSB1174YSB1171          1.00   0.03  0.01  0.00  0.96  0.00  0.00  0.00  0.00  0.00
  YSB1171HS02004479       1.00   0.03  0.00  0.00  0.97  0.00  0.00  0.00  0.13  0.00
  HS02004881HS02006253    1.00   0.03  0.00  0.00  0.77  0.02  0.00  0.18  0.56  0.00
  YS02001793JiankangQianchi    1.00   0.00  0.00  0.00  0.02  0.97  0.00  0.00  0.02  0.00
  YS02001757CaochengTiaoxuchi    1.00   0.00  0.09  0.00  0.91  0.00  0.00  0.00  0.00  0.00
  WSF200WS02003060        1.00   0.00  0.07  0.00  0.65  0.28  0.00  0.00  0.17  0.00
  1                       1.00   0.00  0.00  0.00  0.00  1.00  0.00  0.00  0.43  0.00
  2                       1.00   0.69  0.00  0.00  0.00  0.30  0.00  0.00  0.09  0.00
  3                       1.00   0.31  0.00  0.00  0.00  0.69  0.00  0.00  0.27  0.00
  4                       1.00   1.00  0.00  0.00  0.00  0.00  0.00  0.00  0.00  0.00
  
  
  *************************
  Conduit Surcharge Summary
  *************************
  
  ----------------------------------------------------------------------------
                                                           Hours        Hours 
                         --------- Hours Full --------   Above Full   Capacity
  Conduit                Both Ends  Upstream  Dnstream   Normal Flow   Limited
  ----------------------------------------------------------------------------
  WS02006229WS02006228        1.16      1.42      1.16      3.97         1.16
  WS02006256WS02006235        5.66      5.67      6.32      1.58         0.01
  WS02006252WS02006251        0.80      0.80      1.95      1.65         0.01
  WS02006251WS02006249        0.01      0.01      0.01      0.77         0.01
  WS02006249WS02006248        0.01      0.01      0.01      3.98         0.01
  WS02006247WS02006245        0.01      0.01      0.01      4.45         0.01
  WS02006243WS02006242        0.01      0.01      0.40      0.01         0.01
  WS02006242WS02006240        0.01      0.01      0.96      1.98         0.01
  WS02006240WS02006239        0.01      0.01      0.12      0.01         0.01
  WS02006239WS02006238        0.63      0.63      0.74      0.03         0.01
  WS02006238WS02006235        0.55      0.55      1.29      0.01         0.01
  WS02006235WS02006234        0.01      0.01      0.42      5.66         0.01
  WS02006234WS02006232        0.04      0.04      1.55      0.01         0.01
  WS02006232WS02006231        0.01      0.01      1.55      0.01         0.01
  WS02006231WS02006230        0.01      0.01      0.01      5.69         0.01
  WS02006230WS02006229        2.53      3.56      2.53      5.78         2.53
  WS02006228WS02006109        1.24      2.07      1.24      4.96         1.24
  WS02006111WS02006112        0.01      0.01      4.11      0.01         0.01
  WS02006110WS02006113        0.01      0.01      1.74      0.01         0.01
  WS02006109WS02006110        0.01      0.01      2.07      0.01         0.01
  WS02004404WS02004405        0.01      0.01      0.01      5.58         0.01
  WS02003072WS02003073        0.01      0.01      0.01      4.84         0.01
  YS02001759YS02001757        2.70      2.70      4.11      0.01         0.01
  YS02001762YS02001759        0.97      0.97      2.70      0.01         0.01
  YS02001765YS02001762        0.02      0.02      0.97      0.01         0.01
  YS02001774YS02001770        0.01      0.01      0.17      0.01         0.01
  YS02001779YS02001774        0.01      0.01      0.17      0.01         0.01
  YS02001649YS02001757        1.80      1.80      4.11      0.01         0.01
  YS02001767YS02001765        0.01      0.01      0.02      0.01         0.01
  YS02163601YS02164001        0.01      0.01      1.36      0.01         0.01
  YS02164001YS02001641        0.01      0.01      0.08      0.01         0.01
  YS02001641YS02001644        0.08      0.08      0.14      0.01         0.02
  YS02001647YS02001649        0.01      0.01      1.80      0.01         0.01
  YS02001633YS02163601        0.01      0.01      1.36      0.01         0.01
  YS02001644YS02001647        0.01      0.01      0.14      0.01         0.01
  YS02001754YS02001757        0.01      0.01      4.11      0.01         0.01
  YS02001652YS02001649        0.01      0.01      1.80      0.01         0.01
  YS02001793JiankangQianchi        0.01      0.01      0.09      0.01         0.01
  YS02001757CaochengTiaoxuchi        0.01      0.01      4.11      0.01         0.01
  
  
  ***************
  Pumping Summary
  ***************
  
  ---------------------------------------------------------------------------------------------------------
                                                  Min       Avg       Max     Total     Power    % Time Off
                        Percent   Number of      Flow      Flow      Flow    Volume     Usage    Pump Curve
  Pump                 Utilized   Start-Ups       LPS       LPS       LPS  10^6 ltr     Kw-hr    Low   High
  ---------------------------------------------------------------------------------------------------------
  CC-Pump-1               55.42           5      0.00    127.77    200.00     1.960      7.63    0.0   58.0
  CC-Pump-2               61.79           6      0.00    133.45    200.00     2.280      8.62    0.0   51.6
  JK-Pump-1                0.00           0      0.00      0.00      0.00     0.000      0.00    0.0    0.0
  JK-Pump-2              100.00           1      0.00    143.10    300.00     3.047     58.86    0.0    0.0
  XR-Pump-1               91.49           5      0.00     79.35     95.00     2.024     15.80    0.0    0.0
  XR-Pump-2               97.87           4      0.00     78.23     95.00     2.138     16.52    0.0    0.0
  XR-Pump-3                0.00           0      0.00      0.00      0.00     0.000      0.00    0.0    0.0
  XR-Pump-4               85.09          11      0.00     65.58     95.00     1.596     12.71    0.0    0.0
  

  Analysis begun on:  Wed Jan  5 21:39:34 2022
  Analysis ended on:  Wed Jan  5 21:39:36 2022
  Total elapsed time: 00:00:02