
  EPA STORM WATER MANAGEMENT MODEL - VERSION 5.1 (Build 5.3.0.dev0)
  --------------------------------------------------------------

  WARNING 04: minimum elevation drop used for Conduit WS02004404WS02004405
  WARNING 03: negative offset ignored for Link YS02001904YS02001907
  
  *********************************************************
  NOTE: The summary statistics displayed in this report are
  based on results found at every computational time step,  
  not just on results from each reporting time step.
  *********************************************************
  
  ****************
  Analysis Options
  ****************
  Flow Units ............... LPS
  Process Models:
    Rainfall/Runoff ........ YES
    RDII ................... NO
    Snowmelt ............... NO
    Groundwater ............ NO
    Flow Routing ........... YES
    Ponding Allowed ........ NO
    Water Quality .......... NO
  Infiltration Method ...... HORTON
  Flow Routing Method ...... DYNWAVE
  Surcharge Method ......... EXTRAN
  Starting Date ............ 08/28/2015 08:00:00
  Ending Date .............. 08/28/2015 15:50:00
  Antecedent Dry Days ...... 8.0
  Report Time Step ......... 00:01:00
  Wet Time Step ............ 00:01:00
  Dry Time Step ............ 00:01:00
  Routing Time Step ........ 5.00 sec
  Variable Time Step ....... YES
  Maximum Trials ........... 8
  Number of Threads ........ 4
  Head Tolerance ........... 0.001500 m
  
  
  **************************        Volume         Depth
  Runoff Quantity Continuity     hectare-m            mm
  **************************     ---------       -------
  Total Precipitation ......         1.927         4.218
  Evaporation Loss .........         0.000         0.000
  Infiltration Loss ........         0.476         1.041
  Surface Runoff ...........         0.648         1.419
  Final Storage ............         0.803         1.759
  Continuity Error (%) .....        -0.017
  
  
  **************************        Volume        Volume
  Flow Routing Continuity        hectare-m      10^6 ltr
  **************************     ---------     ---------
  Dry Weather Inflow .......         0.616         6.165
  Wet Weather Inflow .......         0.648         6.475
  Groundwater Inflow .......         0.000         0.000
  RDII Inflow ..............         0.000         0.000
  External Inflow ..........         0.102         1.024
  External Outflow .........         1.249        12.490
  Flooding Loss ............         0.037         0.375
  Evaporation Loss .........         0.000         0.000
  Exfiltration Loss ........         0.000         0.000
  Initial Stored Volume ....         0.076         0.761
  Final Stored Volume ......         0.217         2.169
  Continuity Error (%) .....        -4.220
  
  
  *************************
  Highest Continuity Errors
  *************************
  Node HS02004842 (36.52%)
  Node YS02001884 (30.85%)
  Node YS02001774 (16.74%)
  Node YSB1171 (10.47%)
  Node HS02004901 (8.73%)
  
  
  ***************************
  Time-Step Critical Elements
  ***************************
  Link WS02006252WS02006251 (80.89%)
  Link 3 (9.69%)
  Link WS02006280WS02006229 (3.32%)
  Link WS02006238WS02006235 (2.16%)
  
  
  ********************************
  Highest Flow Instability Indexes
  ********************************
  Link WS02006113WS02006111 (52)
  Link WS02006111WS02006112 (21)
  Link YS02001754YS02001757 (3)
  Link YS02001751YS02001754 (3)
  Link YS02001767YS02001765 (3)
  
  
  *************************
  Routing Time Step Summary
  *************************
  Minimum Time Step           :     0.50 sec
  Average Time Step           :     1.01 sec
  Maximum Time Step           :     5.00 sec
  Percent in Steady State     :    -0.00
  Average Iterations per Step :     2.01
  Percent Not Converging      :     0.03
  
  
  ***************************
  Subcatchment Runoff Summary
  ***************************
  
  ------------------------------------------------------------------------------------------------------------------------------
                            Total      Total      Total      Total     Imperv       Perv      Total       Total     Peak  Runoff
                           Precip      Runon       Evap      Infil     Runoff     Runoff     Runoff      Runoff   Runoff   Coeff
  Subcatchment                 mm         mm         mm         mm         mm         mm         mm    10^6 ltr      LPS
  ------------------------------------------------------------------------------------------------------------------------------
  sub0                       4.22       0.00       0.00       0.30       2.66       0.00       2.66        0.00     0.77   0.630
  sub1                       4.22       0.00       0.00       0.46       2.50       0.00       2.50        0.02     3.99   0.593
  sub2                       4.22       0.00       0.00       1.56       1.75       0.00       1.75        0.02     3.52   0.416
  sub3                       4.22       0.00       0.00       1.56       1.72       0.00       1.72        0.04     7.23   0.408
  sub4                       4.22       0.00       0.00       0.46       2.37       0.00       2.37        0.05     8.09   0.563
  sub5                       4.22       0.00       0.00       0.30       2.61       0.00       2.61        0.03     7.10   0.619
  sub7                       4.22       0.00       0.00       0.38       2.58       0.00       2.58        0.01     2.51   0.613
  sub8                       4.22       0.00       0.00       0.38       2.58       0.00       2.58        0.02     4.43   0.611
  sub9                       4.22       0.00       0.00       0.38       2.57       0.00       2.57        0.01     3.28   0.610
  sub10                      4.22       0.00       0.00       0.34       2.59       0.00       2.59        0.03     7.09   0.614
  sub11                      4.22       0.00       0.00       0.34       2.61       0.00       2.61        0.03     8.34   0.618
  sub12                      4.22       0.00       0.00       0.55       2.48       0.00       2.48        0.02     7.09   0.588
  sub14                      4.22       0.00       0.00       0.38       2.57       0.00       2.57        0.02     6.41   0.610
  sub15                      4.22       0.00       0.00       1.27       1.98       0.00       1.98        0.03     8.69   0.468
  sub16                      4.22       0.00       0.00       1.39       1.91       0.00       1.91        0.02     6.22   0.452
  sub17                      4.22       0.00       0.00       1.35       1.93       0.00       1.93        0.02     5.02   0.459
  sub22                      4.22       0.00       0.00       1.81       1.62       0.00       1.62        0.10    28.52   0.383
  sub23                      4.22       0.00       0.00       1.56       1.79       0.00       1.79        0.09    24.31   0.424
  sub60                      4.22       0.00       0.00       0.51       1.54       0.00       1.54        0.47    39.69   0.366
  sub61                      4.22       0.00       0.00       0.72       1.70       0.00       1.70        0.53    50.66   0.404
  sub62                      4.22       0.00       0.00       0.34       1.81       0.00       1.81        0.56    51.64   0.429
  sub63                      4.22       0.00       0.00       1.22       1.54       0.00       1.54        0.46    47.42   0.364
  sub64                      4.22       0.00       0.00       0.63       1.47       0.00       1.47        0.45    37.62   0.349
  sub65                      4.22       0.00       0.00       0.55       1.49       0.00       1.49        0.46    38.09   0.353
  sub66                      4.22       0.00       0.00       1.22       1.30       0.00       1.30        0.40    34.76   0.308
  sub67                      4.22       0.00       0.00       0.34       2.05       0.00       2.05        0.63    66.77   0.485
  sub68                      4.22       0.00       0.00       0.59       1.83       0.00       1.83        0.56    56.12   0.433
  sub69                      4.22       0.00       0.00       0.63       2.03       0.00       2.03        0.47    56.16   0.481
  sub70                      4.22       2.07       0.00       2.14       2.33       0.00       2.33        0.53    41.69   0.371
  sub71                      4.22       0.00       0.00       0.34       1.71       0.00       1.71        0.40    35.83   0.406
  sub72                      4.22       0.00       0.00       0.30       1.13       0.00       1.13        0.23    16.13   0.269
  sub73                      4.22       2.27       0.00       2.20       2.26       0.00       2.26        0.53    35.55   0.349
  sub74                      4.22       0.00       0.00       3.16       0.62       0.00       0.62        0.25    31.41   0.146
  
  
  ******************
  Node Depth Summary
  ******************
  
  ---------------------------------------------------------------------------------
                                 Average  Maximum  Maximum  Time of Max    Reported
                                   Depth    Depth      HGL   Occurrence   Max Depth
  Node                 Type       Meters   Meters   Meters  days hr:min      Meters
  ---------------------------------------------------------------------------------
  WS02001211           JUNCTION     0.62     0.71     5.55     0  03:37        0.71
  WS02001212           JUNCTION     0.35     0.43     5.49     0  03:37        0.43
  WS02001213           JUNCTION     0.57     0.67     5.44     0  03:36        0.67
  WS02003069           JUNCTION     0.39     0.50     5.09     0  03:35        0.50
  WS02003072           JUNCTION     0.46     0.57     4.94     0  03:35        0.57
  WS02003073           JUNCTION     0.27     0.34     4.41     0  03:36        0.34
  WS02003060           JUNCTION     0.35     0.44     5.38     0  03:34        0.44
  WS02003066           JUNCTION     0.21     0.28     5.83     0  03:11        0.28
  WS02003059           JUNCTION     0.63     0.73     5.42     0  03:35        0.73
  WS02003067           JUNCTION     0.53     0.66     5.98     0  03:11        0.66
  WS02004401           JUNCTION     0.61     0.78     6.78     0  03:07        0.78
  WS02004402           JUNCTION     0.65     0.81     6.77     0  03:08        0.81
  WS02004403           JUNCTION     0.67     0.83     6.76     0  03:08        0.83
  WS02004404           JUNCTION     0.75     0.91     6.76     0  03:07        0.91
  WS02004406           JUNCTION     0.76     0.91     6.74     0  03:08        0.91
  WS02004409           JUNCTION     0.43     0.60     6.37     0  03:10        0.60
  WS02004410           JUNCTION     0.45     0.62     6.34     0  03:11        0.62
  WS02004411           JUNCTION     0.47     0.63     6.31     0  03:11        0.63
  WS02004412           JUNCTION     0.49     0.65     6.29     0  03:11        0.65
  WS02004413           JUNCTION     0.65     0.81     6.28     0  03:11        0.81
  WS02004405           JUNCTION     0.74     0.90     6.75     0  03:08        0.90
  WS02006109           JUNCTION     0.68     0.88     7.49     0  03:03        0.88
  WS02006110           JUNCTION     0.69     0.86     7.44     0  03:03        0.85
  WS02006111           JUNCTION     0.19     0.26     6.97     0  03:04        0.26
  WS02006112           JUNCTION     0.77     0.97     6.85     0  03:07        0.97
  WS02006113           JUNCTION     0.30     0.41     7.31     0  03:03        0.41
  WS02006115           JUNCTION     0.50     0.68     6.82     0  03:07        0.68
  WS02006116           JUNCTION     0.59     0.76     6.80     0  03:07        0.76
  WS02006230           JUNCTION     0.63     0.90     7.65     0  03:03        0.90
  WS02006231           JUNCTION     0.42     0.61     7.73     0  03:03        0.61
  WS02006232           JUNCTION     0.56     0.75     7.79     0  03:03        0.75
  WS02006234           JUNCTION     0.47     0.70     7.86     0  03:04        0.70
  WS02006235           JUNCTION     0.50     0.74     7.90     0  03:04        0.74
  WS02006238           JUNCTION     0.52     0.76     7.91     0  03:04        0.76
  WS02006240           JUNCTION     0.42     0.70     7.99     0  03:04        0.70
  WS02006242           JUNCTION     0.47     0.77     8.04     0  03:04        0.77
  WS02006243           JUNCTION     0.35     0.66     8.08     0  03:04        0.66
  WS02006245           JUNCTION     0.35     0.64     8.12     0  03:04        0.64
  WS02006247           JUNCTION     0.37     0.65     8.15     0  03:04        0.65
  WS02006248           JUNCTION     0.32     0.59     8.17     0  03:05        0.59
  WS02006249           JUNCTION     0.36     0.60     8.20     0  03:05        0.60
  WS02006239           JUNCTION     0.47     0.74     7.95     0  03:04        0.74
  WS02006251           JUNCTION     0.35     0.63     8.30     0  03:04        0.63
  WS02006252           JUNCTION     0.31     0.58     8.83     0  05:00        0.58
  WS02006253           JUNCTION     0.37     0.65     8.30     0  03:04        0.65
  WS02006256           JUNCTION     0.89     1.15     8.09     0  00:00        1.10
  WS02004138           JUNCTION     0.14     0.17     7.42     0  00:30        0.17
  WS02004407           JUNCTION     0.20     0.27     6.58     0  03:08        0.27
  WS02006228           JUNCTION     0.67     0.89     7.54     0  03:03        0.89
  WS02006229           JUNCTION     0.64     0.88     7.57     0  03:03        0.88
  WS02006280           JUNCTION     0.05     0.11     8.38     0  02:25        0.11
  WS02006284           JUNCTION     0.33     0.43     8.83     0  02:25        0.43
  WS02006287           JUNCTION     0.07     0.16     9.11     0  02:25        0.16
  WSF200               JUNCTION     0.19     0.28     5.51     0  03:10        0.28
  HS02004901           JUNCTION     0.10     0.18    10.01     0  02:22        0.18
  HS02004881           JUNCTION     0.00     0.02     9.05     0  02:24        0.02
  HS02004876           JUNCTION     0.03     0.08     9.11     0  02:24        0.08
  HS02004870           JUNCTION     0.01     0.03     9.31     0  02:24        0.03
  HS02004862           JUNCTION     0.01     0.03     9.42     0  02:26        0.03
  HS02004856           JUNCTION     0.07     0.09     9.52     0  02:25        0.09
  HS02004852           JUNCTION     0.00     0.02     9.53     0  02:26        0.02
  HS02004848           JUNCTION     0.00     0.02     9.62     0  02:23        0.02
  HS02004842           JUNCTION     0.32     0.35     9.62     0  02:23        0.35
  HS02004837           JUNCTION     0.02     0.04     9.62     0  02:23        0.04
  HS02004830           JUNCTION     0.03     0.05     9.52     0  02:23        0.05
  HS02004824           JUNCTION     0.02     0.03     9.43     0  02:27        0.03
  HS02004817           JUNCTION     0.41     0.48     9.33     0  02:25        0.48
  HS02004807           JUNCTION     0.10     0.16     9.33     0  02:25        0.16
  HS02004802           JUNCTION     0.14     0.20     9.33     0  02:25        0.20
  HS02004799           JUNCTION     0.09     0.19     9.41     0  02:23        0.19
  HS02004792           JUNCTION     0.02     0.07     9.59     0  02:22        0.07
  HS02004788           JUNCTION     0.01     0.05     9.95     0  02:23        0.05
  HS02004785           JUNCTION     0.03     0.10    10.00     0  02:23        0.10
  HS02004777           JUNCTION     0.12     0.21    10.01     0  02:23        0.21
  HS02004770           JUNCTION     0.09     0.18    10.01     0  02:23        0.18
  HS02004480           JUNCTION     0.05     0.15     9.39     0  02:23        0.15
  HS02004479           JUNCTION     0.09     0.18     9.39     0  02:23        0.18
  HS02004478           JUNCTION     0.04     0.09     9.32     0  02:24        0.09
  YS02001745           JUNCTION     0.06     0.09     7.60     0  03:01        0.09
  YS02001748           JUNCTION     0.07     0.12     7.20     0  03:05        0.12
  YS02001751           JUNCTION     0.20     0.33     7.21     0  03:08        0.32
  YS02001754           JUNCTION     0.45     0.60     7.21     0  03:09        0.60
  YS02001762           JUNCTION     0.64     0.80     7.20     0  03:06        0.80
  YS02001765           JUNCTION     0.59     0.75     7.20     0  03:06        0.75
  YS02001767           JUNCTION     0.56     0.71     7.20     0  03:06        0.71
  YS02001770           JUNCTION     0.55     0.71     7.20     0  03:07        0.71
  YS02001774           JUNCTION     0.62     0.78     7.20     0  03:07        0.78
  YS02001779           JUNCTION     0.38     0.52     7.20     0  03:07        0.51
  YS02001882           JUNCTION     0.22     0.33     7.05     0  03:00        0.33
  YS02001884           JUNCTION     0.32     0.43     7.05     0  03:01        0.43
  YS02001759           JUNCTION     0.67     0.84     7.20     0  03:08        0.84
  YS02001887           JUNCTION     0.39     0.51     7.05     0  03:01        0.51
  YS02001890           JUNCTION     0.42     0.54     7.05     0  03:01        0.54
  YS02001898           JUNCTION     0.20     0.30     7.03     0  03:01        0.30
  YS02001901           JUNCTION     0.31     0.42     7.03     0  03:02        0.42
  YS02001904           JUNCTION     0.29     0.40     7.03     0  03:02        0.40
  YS02001907           JUNCTION     0.62     0.74     7.03     0  03:01        0.74
  YS02001910           JUNCTION     0.41     0.52     7.03     0  03:01        0.52
  YS02001915           JUNCTION     0.21     0.31     7.03     0  03:00        0.31
  YS02001918           JUNCTION     0.06     0.07     7.14     0  03:04        0.07
  YS02001619           JUNCTION     0.16     0.28     7.21     0  03:04        0.28
  YS02001629           JUNCTION     0.50     0.65     7.20     0  03:05        0.65
  YS02001641           JUNCTION     0.61     0.77     7.20     0  03:04        0.77
  YS02001644           JUNCTION     0.61     0.77     7.20     0  03:07        0.77
  YS02001652           JUNCTION     0.46     0.61     7.20     0  03:07        0.61
  YS02001655           JUNCTION     0.23     0.35     7.20     0  03:07        0.35
  YS02001920           JUNCTION     0.15     0.17     7.17     0  03:03        0.17
  YS02001923           JUNCTION     0.05     0.06     7.32     0  03:02        0.06
  YS02001926           JUNCTION     0.11     0.14     7.58     0  03:02        0.14
  YS02001929           JUNCTION     0.05     0.06     7.76     0  03:01        0.06
  YS02001658           JUNCTION     0.06     0.10     7.24     0  02:55        0.10
  YS02001661           JUNCTION     0.12     0.16     7.57     0  02:55        0.16
  YS02001664           JUNCTION     0.05     0.09     8.01     0  02:55        0.09
  YS02001622           JUNCTION     0.18     0.30     7.21     0  03:04        0.30
  YS02001633           JUNCTION     0.59     0.75     7.20     0  03:06        0.75
  YS02001649           JUNCTION     0.65     0.81     7.20     0  03:07        0.81
  YS02001757           JUNCTION     0.77     0.94     7.20     0  03:06        0.94
  YS02001895           JUNCTION     0.19     0.29     7.04     0  03:02        0.29
  YS02001625           JUNCTION     0.46     0.60     7.21     0  03:03        0.60
  YS02163301           JUNCTION     0.53     0.69     7.20     0  03:03        0.69
  YS02163601           JUNCTION     0.65     0.81     7.20     0  03:06        0.80
  YS02164001           JUNCTION     0.59     0.74     7.20     0  03:06        0.74
  YS02001647           JUNCTION     0.44     0.59     7.20     0  03:07        0.59
  YSB1154              JUNCTION     0.23     0.33     9.39     0  02:23        0.33
  YSB6556              JUNCTION     0.12     0.22     9.39     0  02:24        0.22
  YSB1174              JUNCTION     0.18     0.28     9.39     0  02:23        0.28
  YSB1171              JUNCTION     0.38     0.48     9.39     0  02:24        0.48
  YS02006553           JUNCTION     0.62     0.75     7.03     0  03:01        0.75
  YS02006561           JUNCTION     0.11     0.16     6.82     0  03:01        0.16
  YS02006556           JUNCTION     0.60     0.72     7.03     0  03:01        0.72
  YS02006558           JUNCTION     0.64     0.76     7.03     0  03:01        0.76
  YS02001783           JUNCTION     0.18     0.29     6.43     0  03:01        0.29
  YS02001784           JUNCTION     0.21     0.32     6.39     0  03:01        0.32
  YS02001786           JUNCTION     0.18     0.27     6.30     0  03:02        0.27
  YS02001788           JUNCTION     0.13     0.20     6.17     0  03:02        0.20
  YS02001790           JUNCTION     0.16     0.24     5.88     0  03:02        0.24
  YS02001791           JUNCTION     0.10     0.16     5.63     0  03:02        0.16
  YS02001793           JUNCTION     0.07     0.11     4.94     0  03:02        0.11
  WS02004139           JUNCTION     0.56     0.65     5.56     0  03:38        0.65
  WSC                  OUTFALL      0.27     0.34     1.01     0  03:36        0.34
  3                    OUTFALL      0.03     0.13     6.13     0  00:00        0.10
  4                    OUTFALL      0.01     0.10     7.10     0  03:05        0.10
  5                    OUTFALL      0.00     0.00     5.00     0  00:00        0.00
  JK-storage           STORAGE      0.04     3.00     3.80     0  00:00        2.70
  CC-storage           STORAGE      0.01     0.07     7.07     0  04:09        0.07
  XR-storage           STORAGE      6.94     7.72     5.72     0  04:12        7.72
  
  
  *******************
  Node Inflow Summary
  *******************
  
  -------------------------------------------------------------------------------------------------
                                  Maximum  Maximum                  Lateral       Total        Flow
                                  Lateral    Total  Time of Max      Inflow      Inflow     Balance
                                   Inflow   Inflow   Occurrence      Volume      Volume       Error
  Node                 Type           LPS      LPS  days hr:min    10^6 ltr    10^6 ltr     Percent
  -------------------------------------------------------------------------------------------------
  WS02001211           JUNCTION      7.35   293.01     0  05:38       0.207        5.96       0.617
  WS02001212           JUNCTION      0.00   293.37     0  05:38           0        5.92       0.357
  WS02001213           JUNCTION      0.00   293.78     0  03:40           0         5.9       0.358
  WS02003069           JUNCTION      0.32   725.35     0  03:35     0.00902        11.9       0.228
  WS02003072           JUNCTION      0.00   725.32     0  03:35           0        11.9       0.286
  WS02003073           JUNCTION      1.82   727.22     0  03:35      0.0514        11.9       0.320
  WS02003060           JUNCTION     16.53   725.03     0  03:34       0.466        11.9       0.219
  WS02003066           JUNCTION      0.00   449.05     0  03:11           0         5.6       0.065
  WS02003059           JUNCTION      0.00   294.84     0  03:41           0        5.88       0.641
  WS02003067           JUNCTION      0.00   449.04     0  03:11           0         5.6       0.144
  WS02004401           JUNCTION      0.00   450.76     0  03:06           0         5.8       0.320
  WS02004402           JUNCTION      0.00   450.45     0  03:07           0        5.79       0.306
  WS02004403           JUNCTION      0.00   450.31     0  03:07           0        5.77       0.283
  WS02004404           JUNCTION      0.16   450.40     0  03:07     0.00457        5.76       0.218
  WS02004406           JUNCTION      0.00   450.39     0  03:07           0        5.73       0.533
  WS02004409           JUNCTION      0.00   450.36     0  03:08           0        5.69       0.225
  WS02004410           JUNCTION      0.00   449.82     0  03:09           0        5.68       0.261
  WS02004411           JUNCTION      0.00   449.45     0  03:10           0        5.66       0.274
  WS02004412           JUNCTION      0.00   449.21     0  03:10           0        5.65       0.304
  WS02004413           JUNCTION      0.00   449.08     0  03:11           0        5.63       0.463
  WS02004405           JUNCTION      0.04   450.40     0  03:07     0.00107        5.74       0.326
  WS02006109           JUNCTION      1.23   452.22     0  03:03      0.0347        5.89       0.323
  WS02006110           JUNCTION      0.00   452.22     0  03:03           0        5.87       0.292
  WS02006111           JUNCTION      0.00   465.16     0  03:03           0        5.85       0.058
  WS02006112           JUNCTION      5.02   455.20     0  03:04      0.0166        5.86       0.446
  WS02006113           JUNCTION      0.00   452.29     0  03:03           0        5.86       0.131
  WS02006115           JUNCTION      0.00   452.83     0  03:04           0        5.84       0.280
  WS02006116           JUNCTION      0.00   451.54     0  03:04           0        5.82       0.272
  WS02006230           JUNCTION     10.28   387.88     0  03:21        0.29        5.25       0.204
  WS02006231           JUNCTION      0.00   377.38     0  03:21           0        4.97       0.201
  WS02006232           JUNCTION      0.00   377.35     0  03:21           0        4.98       0.278
  WS02006234           JUNCTION      0.00   377.22     0  03:21           0        4.99       0.115
  WS02006235           JUNCTION      0.00   377.46     0  05:02           0        5.02       0.174
  WS02006238           JUNCTION      0.00   311.16     0  05:02           0        3.41       0.174
  WS02006240           JUNCTION      0.00   316.79     0  05:01           0         3.4       0.248
  WS02006242           JUNCTION      0.00   319.73     0  05:01           0        3.41       0.320
  WS02006243           JUNCTION      0.00   325.90     0  05:00           0         3.4       0.013
  WS02006245           JUNCTION      0.00   329.57     0  05:00           0         3.4       0.232
  WS02006247           JUNCTION      0.00   333.28     0  05:00           0        3.41       0.153
  WS02006248           JUNCTION      0.00   336.99     0  05:00           0        3.41       0.038
  WS02006249           JUNCTION      0.00   411.29     0  03:04           0         3.6       0.285
  WS02006239           JUNCTION      0.00   312.97     0  05:01           0        3.41       0.251
  WS02006251           JUNCTION      0.08   411.91     0  03:00     0.00217        3.63       0.181
  WS02006252           JUNCTION      0.00   400.00     0  03:00           0        3.51       0.010
  WS02006253           JUNCTION      0.77    26.02     0  06:10     0.00215       0.121       1.931
  WS02006256           JUNCTION      0.00   300.00     0  00:00           0        2.12       0.117
  WS02004138           JUNCTION      0.00   285.00     0  00:30           0        5.79       0.078
  WS02004407           JUNCTION      0.00   450.37     0  03:08           0         5.7       0.103
  WS02006228           JUNCTION      0.00   450.98     0  03:03           0        5.87       0.224
  WS02006229           JUNCTION      0.00   450.99     0  03:02           0        5.88       0.183
  WS02006280           JUNCTION      0.00   117.83     0  02:25           0       0.644       0.011
  WS02006284           JUNCTION      0.10   117.83     0  02:25      0.0027       0.645       0.178
  WS02006287           JUNCTION      0.00   117.74     0  02:24           0       0.643       0.108
  WSF200               JUNCTION      0.00   449.04     0  03:12           0        5.59       0.059
  HS02004901           JUNCTION      6.22     6.22     0  02:14        0.02      0.0201       9.568
  HS02004881           JUNCTION      2.51    21.00     0  02:23      0.0087        0.09       0.234
  HS02004876           JUNCTION      3.99    18.70     0  02:23      0.0166      0.0818       0.637
  HS02004870           JUNCTION      4.43    14.79     0  02:23      0.0164      0.0653       0.162
  HS02004862           JUNCTION      3.72    10.66     0  02:24       0.022       0.049       0.341
  HS02004856           JUNCTION      3.28     6.97     0  02:23      0.0124      0.0285       5.307
  HS02004852           JUNCTION      0.00     3.90     0  02:24           0      0.0162       0.296
  HS02004848           JUNCTION      7.23     7.23     0  02:26      0.0387      0.0387       0.109
  HS02004842           JUNCTION      0.00     4.47     0  00:03           0      0.0356      57.519
  HS02004837           JUNCTION     13.44    16.61     0  02:22       0.208        0.23       0.354
  HS02004830           JUNCTION      0.15    16.75     0  02:23     0.00423       0.221       0.561
  HS02004824           JUNCTION      8.14    24.79     0  02:27      0.0509        0.27       0.199
  HS02004817           JUNCTION      0.60    25.39     0  02:27      0.0169       0.287       6.170
  HS02004807           JUNCTION      8.34    33.00     0  02:25      0.0303         0.3       1.427
  HS02004802           JUNCTION      0.00    33.08     0  02:27           0       0.296       1.392
  HS02004799           JUNCTION      6.41    72.17     0  02:22      0.0245       0.314       0.722
  HS02004792           JUNCTION     28.80    65.93     0  02:21        0.11        0.29       0.144
  HS02004788           JUNCTION     10.36    38.53     0  02:23      0.0811       0.182       0.217
  HS02004785           JUNCTION      0.15    28.52     0  02:22     0.00423       0.103       0.467
  HS02004777           JUNCTION      0.03    28.79     0  02:20    0.000846       0.103       5.294
  HS02004770           JUNCTION     24.31    29.67     0  02:17      0.0852       0.104       3.084
  HS02004480           JUNCTION      0.00    85.01     0  02:23           0       0.363       0.186
  HS02004479           JUNCTION      0.00    13.08     0  02:25           0      0.0608       1.212
  HS02004478           JUNCTION      0.00   117.75     0  02:24           0       0.644       0.102
  YS02001745           JUNCTION     39.69    39.69     0  03:01       0.468       0.468       0.076
  YS02001748           JUNCTION      0.04    39.72     0  03:01     0.00127       0.469       0.039
  YS02001751           JUNCTION      0.01    68.47     0  04:34     0.00031       0.591       0.314
  YS02001754           JUNCTION      0.26   203.82     0  04:40     0.00733        1.02       0.918
  YS02001762           JUNCTION      0.00    58.13     0  03:09           0       0.608       2.236
  YS02001765           JUNCTION      0.00    76.79     0  04:29           0       0.597       2.379
  YS02001767           JUNCTION      0.54    61.34     0  04:45      0.0151       0.602       3.344
  YS02001770           JUNCTION     51.79    56.93     0  02:35       0.561       0.581       2.848
  YS02001774           JUNCTION      0.00    30.59     0  02:31           0      0.0866      20.102
  YS02001779           JUNCTION      0.01    13.67     0  02:31    0.000141      0.0517      11.134
  YS02001882           JUNCTION      0.00     2.13     0  02:12           0     0.00347      71.002
  YS02001884           JUNCTION      0.00     6.51     0  02:08           0      0.0141      44.622
  YS02001759           JUNCTION     50.70   112.61     0  03:00       0.526        1.11       1.453
  YS02001887           JUNCTION     67.22    67.22     0  02:52       0.644        0.65       1.027
  YS02001890           JUNCTION      0.00    66.92     0  02:55           0       0.632       1.165
  YS02001898           JUNCTION      0.00    66.67     0  02:57           0       0.621       0.296
  YS02001901           JUNCTION      0.00    66.70     0  02:58           0       0.621       0.808
  YS02001904           JUNCTION      0.00    66.48     0  03:02           0        0.62       0.755
  YS02001907           JUNCTION      0.00   121.14     0  03:02           0        1.32       1.631
  YS02001910           JUNCTION      0.00    54.85     0  03:01           0        0.71       1.353
  YS02001915           JUNCTION     35.85    54.66     0  03:01       0.405       0.714       0.551
  YS02001918           JUNCTION      0.00    19.01     0  03:03           0        0.31       0.270
  YS02001619           JUNCTION     34.76    34.76     0  03:01       0.398       0.398       0.138
  YS02001629           JUNCTION      0.00    37.13     0  02:40           0       0.381       1.427
  YS02001641           JUNCTION      0.00    76.51     0  03:06           0       0.808       1.586
  YS02001644           JUNCTION     37.66   110.95     0  03:06       0.449        1.24       1.251
  YS02001652           JUNCTION      0.00    62.51     0  04:30           0       0.525       1.638
  YS02001655           JUNCTION      0.15    47.58     0  02:55     0.00434       0.476       0.695
  YS02001920           JUNCTION      2.87    19.02     0  03:02      0.0809       0.312       0.551
  YS02001923           JUNCTION      0.04    16.15     0  03:02     0.00106       0.231       0.097
  YS02001926           JUNCTION      0.05    16.17     0  03:01     0.00147       0.232       0.705
  YS02001929           JUNCTION     16.13    16.13     0  03:01       0.231       0.231       0.092
  YS02001658           JUNCTION      0.00    47.42     0  02:55           0       0.464       0.043
  YS02001661           JUNCTION      0.00    47.42     0  02:55           0       0.464       0.158
  YS02001664           JUNCTION     47.42    47.42     0  02:55       0.465       0.465       0.031
  YS02001622           JUNCTION      0.00    35.61     0  03:00           0       0.397       0.631
  YS02001633           JUNCTION     38.29    74.29     0  03:05       0.463       0.832       2.231
  YS02001649           JUNCTION      0.00   169.06     0  03:13           0        1.71       1.383
  YS02001757           JUNCTION      0.00   371.41     0  04:21           0        3.51       2.017
  YS02001895           JUNCTION      0.00    66.72     0  02:55           0       0.624       0.503
  YS02001625           JUNCTION      0.00    36.83     0  03:05           0       0.395       3.825
  YS02163301           JUNCTION      0.00    39.96     0  02:39           0       0.382       3.262
  YS02163601           JUNCTION      0.11    75.52     0  03:06      0.0031       0.813       2.371
  YS02164001           JUNCTION      0.00    76.41     0  03:15           0       0.803       1.455
  YS02001647           JUNCTION      0.00   112.74     0  03:06           0        1.21       0.970
  YSB1154              JUNCTION      7.10     7.10     0  02:20      0.0296       0.031       4.884
  YSB6556              JUNCTION      0.00     7.08     0  02:22           0      0.0321       4.031
  YSB1174              JUNCTION      7.09     7.09     0  02:14      0.0217      0.0228       5.983
  YSB1171              JUNCTION      0.00    13.08     0  02:22           0      0.0603      11.693
  YS02006553           JUNCTION      0.00   121.29     0  03:02           0        1.31       1.063
  YS02006561           JUNCTION      0.00   177.45     0  03:01           0        1.85       0.029
  YS02006556           JUNCTION      0.00   121.46     0  03:04           0        1.31       0.761
  YS02006558           JUNCTION     57.00   177.47     0  03:00       0.586        1.87       0.229
  YS02001783           JUNCTION      0.00   177.44     0  03:01           0        1.85       0.066
  YS02001784           JUNCTION      1.06   178.50     0  03:01      0.0299        1.88       0.111
  YS02001786           JUNCTION      0.06   178.55     0  03:01     0.00159        1.88       0.108
  YS02001788           JUNCTION      0.07   178.62     0  03:02       0.002        1.88       0.060
  YS02001790           JUNCTION      0.15   178.76     0  03:02     0.00437        1.88       0.078
  YS02001791           JUNCTION      0.00   178.75     0  03:02           0        1.88       0.038
  YS02001793           JUNCTION      0.00   178.75     0  03:02           0        1.88       0.017
  WS02004139           JUNCTION      0.32   285.37     0  00:30     0.00905        5.79       0.651
  WSC                  OUTFALL       0.00   727.31     0  03:36           0        11.8       0.000
  3                    OUTFALL       0.00   250.55     0  00:00           0       0.481       0.000
  4                    OUTFALL       0.00   107.22     0  03:05           0       0.175       0.000
  5                    OUTFALL       0.00     0.00     0  00:00           0           0       0.000 ltr
  JK-storage           STORAGE       0.00   178.75     0  03:02           0        2.03      -4.331
  CC-storage           STORAGE       0.00   292.42     0  03:07           0        3.02     -13.931
  XR-storage           STORAGE     265.04   265.04     0  03:01        6.42        7.02      -0.003
  
  
  **********************
  Node Surcharge Summary
  **********************
  
  Surcharging occurs when water rises above the top of the highest conduit.
  ---------------------------------------------------------------------
                                               Max. Height   Min. Depth
                                   Hours       Above Crown    Below Rim
  Node                 Type      Surcharged         Meters       Meters
  ---------------------------------------------------------------------
  WS02006109           JUNCTION        0.76          0.056        1.764
  WS02006232           JUNCTION        0.70          0.050        1.430
  WS02006235           JUNCTION        0.43          0.026        1.264
  WS02006238           JUNCTION        0.54          0.045        1.385
  WS02006242           JUNCTION        0.43          0.040        0.780
  WS02006239           JUNCTION        0.13          0.003        1.287
  WS02006252           JUNCTION        0.83          0.184        0.916
  WS02006228           JUNCTION        0.62          0.063        2.137
  
  
  *********************
  Node Flooding Summary
  *********************
  
  Flooding refers to all water that overflows a node, whether it ponds or not.
  --------------------------------------------------------------------------
                                                             Total   Maximum
                                 Maximum   Time of Max       Flood    Ponded
                        Hours       Rate    Occurrence      Volume     Depth
  Node                 Flooded       LPS   days hr:min    10^6 ltr    Meters
  --------------------------------------------------------------------------
  XR-storage              1.21    240.56      0  04:20       0.374     0.000
  
  
  **********************
  Storage Volume Summary
  **********************
  
  --------------------------------------------------------------------------------------------------
                         Average     Avg  Evap Exfil       Maximum     Max    Time of Max    Maximum
                          Volume    Pcnt  Pcnt  Pcnt        Volume    Pcnt     Occurrence    Outflow
  Storage Unit           1000 m3    Full  Loss  Loss       1000 m3    Full    days hr:min        LPS
  --------------------------------------------------------------------------------------------------
  JK-storage               0.002       1     0     0         0.151      52       0  00:00     300.00
  CC-storage               0.040       0     0     0         0.186       1       0  04:09     400.00
  XR-storage               0.833      90     0     0         0.926     100       0  04:12     285.00
  
  
  ***********************
  Outfall Loading Summary
  ***********************
  
  -----------------------------------------------------------
                         Flow       Avg       Max       Total
                         Freq      Flow      Flow      Volume
  Outfall Node           Pcnt       LPS       LPS    10^6 ltr
  -----------------------------------------------------------
  WSC                   99.99    484.49    727.31      11.834
  3                     52.98     45.69    250.55       0.481
  4                     13.57     59.19    107.22       0.175
  5                      0.00      0.00      0.00       0.000
  -----------------------------------------------------------
  System                41.63    589.38    928.29      12.490
  
  
  ********************
  Link Flow Summary
  ********************
  
  -----------------------------------------------------------------------------
                                 Maximum  Time of Max   Maximum    Max/    Max/
                                  |Flow|   Occurrence   |Veloc|    Full    Full
  Link                 Type          LPS  days hr:min     m/sec    Flow   Depth
  -----------------------------------------------------------------------------
  WS02003066WSF200     CONDUIT    449.04     0  03:12      2.61    0.08    0.21
  WS02006287WS02006284 CONDUIT    117.73     0  02:25      1.33    0.05    0.17
  WS02006284WS02006280 CONDUIT    117.83     0  02:25      1.58    0.05    0.15
  WS02006280WS02006229 CONDUIT    117.83     0  02:25      2.53    0.03    0.11
  WS02006229WS02006228 CONDUIT    450.98     0  03:03      0.90    1.49    1.00
  WS02006256WS02006235 CONDUIT    166.25     0  00:01      2.58    1.76    1.00
  WS02006253WS02006251 CONDUIT     54.13     0  06:51      0.39    0.16    0.91
  WS02006252WS02006251 CONDUIT    400.09     0  03:00      3.18    1.47    1.00
  WS02006251WS02006249 CONDUIT    411.29     0  03:04      1.16    1.19    0.88
  WS02006249WS02006248 CONDUIT    336.99     0  05:00      1.08    1.85    0.84
  WS02006248WS02006247 CONDUIT    333.28     0  05:00      1.04    0.73    0.87
  WS02006247WS02006245 CONDUIT    329.57     0  05:00      0.99    2.61    0.91
  WS02006245WS02006243 CONDUIT    325.90     0  05:00      1.03    0.96    0.92
  WS02006243WS02006242 CONDUIT    319.73     0  05:01      0.88    0.68    0.97
  WS02006242WS02006240 CONDUIT    316.79     0  05:01      0.84    1.26    0.99
  WS02006240WS02006239 CONDUIT    312.97     0  05:01      0.84    0.98    1.00
  WS02006239WS02006238 CONDUIT    311.16     0  05:02      0.81    1.00    1.00
  WS02006238WS02006235 CONDUIT    311.01     0  05:02      1.25    0.69    1.00
  WS02006235WS02006234 CONDUIT    377.22     0  03:21      1.01    3.98    0.99
  WS02006234WS02006232 CONDUIT    377.35     0  03:21      1.13    0.76    1.00
  WS02006232WS02006231 CONDUIT    377.38     0  03:21      1.03    0.79    0.93
  WS02006231WS02006230 CONDUIT    377.60     0  03:21      1.32    5.73    0.81
  WS02006230WS02006229 CONDUIT    388.28     0  03:22      1.01    8.64    1.00
  WS02006228WS02006109 CONDUIT    450.99     0  03:03      0.90    1.97    1.00
  WS02006116WS02004401 CONDUIT    450.76     0  03:06      0.73    0.62    0.77
  WS02006115WS02006116 CONDUIT    451.54     0  03:04      0.79    0.58    0.69
  WS02006113WS02006111 CONDUIT    465.16     0  03:03      2.31    0.56    0.42
  WS02006112WS02006115 CONDUIT    452.83     0  03:04      0.66    0.27    0.82
  WS02006111WS02006112 CONDUIT    453.66     0  03:04      1.32    0.22    0.66
  WS02006110WS02006113 CONDUIT    452.29     0  03:03      1.11    0.41    0.76
  WS02006109WS02006110 CONDUIT    452.22     0  03:03      0.91    0.87    0.97
  WS02004411WS02004412 CONDUIT    449.21     0  03:10      0.85    0.64    0.64
  WS02004401WS02004402 CONDUIT    450.45     0  03:07      0.77    0.54    0.80
  WS02004413WS02003067 CONDUIT    449.04     0  03:11      1.01    0.19    0.55
  WS02004412WS02004413 CONDUIT    449.08     0  03:11      0.73    0.30    0.73
  WS02004410WS02004411 CONDUIT    449.45     0  03:10      0.87    0.61    0.63
  WS02004409WS02004410 CONDUIT    449.82     0  03:09      0.90    0.58    0.61
  WS02004407WS02004409 CONDUIT    450.36     0  03:08      1.37    0.16    0.44
  WS02004406WS02004407 CONDUIT    450.37     0  03:08      0.94    0.20    0.59
  WS02004405WS02004406 CONDUIT    450.39     0  03:07      0.66    0.89    0.90
  WS02004404WS02004405 CONDUIT    450.37     0  03:07      0.84    4.41    0.90
  WS02004403WS02004404 CONDUIT    450.24     0  03:07      0.74    0.33    0.87
  WS02004402WS02004403 CONDUIT    450.31     0  03:07      0.75    0.65    0.82
  WS02004139WS02001211 CONDUIT    285.66     0  05:38      0.69    0.36    0.52
  WS02004138WS02004139 CONDUIT    285.05     0  00:30      2.94    0.06    0.38
  WS02003067WS02003066 CONDUIT    449.05     0  03:11      1.09    0.14    0.39
  WS02001213WS02003059 CONDUIT    294.84     0  03:41      0.65    0.49    0.69
  WS02001212WS02001213 CONDUIT    293.78     0  03:40      1.19    0.45    0.39
  WS02001211WS02001212 CONDUIT    293.37     0  05:38      0.67    0.22    0.57
  WS02003072WS02003073 CONDUIT    725.40     0  03:35      1.58    1.57    0.43
  WS02003069WS02003072 CONDUIT    725.32     0  03:35      1.49    0.35    0.44
  WS02003060WS02003069 CONDUIT    725.03     0  03:35      1.75    0.28    0.39
  WS02003059WS02003060 CONDUIT    296.36     0  03:41      0.82    0.19    0.59
  HS02004901HS02004770 CONDUIT      5.61     0  02:20      0.03    0.02    0.26
  HS02004876HS02004881 CONDUIT     18.70     0  02:24      0.37    0.20    0.07
  HS02004870HS02004876 CONDUIT     14.78     0  02:24      0.26    0.01    0.08
  HS02004842HS02004848 CONDUIT      3.52     0  02:36      0.02    0.00    0.26
  HS02004837HS02004842 CONDUIT      4.47     0  00:03      0.41    0.00    0.28
  HS02004830HS02004837 CONDUIT     16.60     0  02:23      0.38    0.02    0.06
  HS02004824HS02004830 CONDUIT     16.75     0  02:24      0.42    0.02    0.06
  HS02004817HS02004824 CONDUIT     24.79     0  02:27      0.17    0.01    0.37
  HS02004770HS02004777 CONDUIT     28.76     0  02:20      0.15    0.05    0.27
  HS02004799HS02004480 CONDUIT     72.04     0  02:22      0.44    0.09    0.24
  HS02004792HS02004799 CONDUIT     65.90     0  02:22      0.51    0.04    0.19
  HS02004788HS02004792 CONDUIT     38.50     0  02:23      0.67    0.03    0.08
  HS02004785HS02004788 CONDUIT     28.42     0  02:23      0.39    0.21    0.10
  HS02004777HS02004785 CONDUIT     28.37     0  02:22      0.19    0.03    0.22
  HS02004480HS02004478 CONDUIT     84.97     0  02:23      0.75    0.36    0.16
  HS02004479HS02004480 CONDUIT     13.17     0  02:25      0.16    0.01    0.23
  HS02004862HS02004870 CONDUIT     10.63     0  02:25      0.36    0.01    0.04
  HS02004848HS02004852 CONDUIT      3.90     0  02:24      0.23    0.00    0.02
  HS02004856HS02004862 CONDUIT      6.95     0  02:25      0.26    0.01    0.04
  HS02004852HS02004856 CONDUIT      3.87     0  02:26      0.07    0.00    0.08
  HS02004802HS02004478 CONDUIT     33.22     0  02:28      0.23    0.03    0.21
  HS02004478WS02006287 CONDUIT    117.74     0  02:24      1.02    0.03    0.13
  HS02004817HS02004807 CONDUIT     25.61     0  02:29      0.08    0.02    0.46
  HS02004807HS02004802 CONDUIT     33.08     0  02:27      0.19    0.06    0.25
  YS02001759YS02001757 CONDUIT    110.53     0  02:59      0.15    0.08    0.89
  YS02001762YS02001759 CONDUIT     77.10     0  04:30      0.17    0.09    0.82
  YS02001765YS02001762 CONDUIT     58.13     0  03:09      0.22    0.05    0.78
  YS02001770YS02001767 CONDUIT     57.70     0  02:59      0.29    0.23    0.71
  YS02001774YS02001770 CONDUIT     30.59     0  02:31      0.11    0.02    0.73
  YS02001779YS02001774 CONDUIT     13.67     0  02:31      0.06    0.01    0.65
  YS02001649YS02001757 CONDUIT    166.17     0  03:05      0.23    0.10    0.88
  YS02001767YS02001765 CONDUIT     76.79     0  04:29      0.25    0.10    0.73
  YS02006561YS02001783 CONDUIT    177.44     0  03:01      1.54    0.09    0.28
  YS02001783YS02001784 CONDUIT    177.44     0  03:01      1.02    0.24    0.38
  YS02001784YS02001785 CONDUIT    178.49     0  03:01      1.07    0.42    0.37
  YS02001788YS02001790 CONDUIT    178.61     0  03:02      1.61    0.13    0.27
  YS02001790YS02001791 CONDUIT    178.75     0  03:02      1.85    0.19    0.25
  YS02001791YS02001793 CONDUIT    178.75     0  03:02      3.32    0.08    0.16
  YS02001910YS02001907 CONDUIT     54.79     0  03:04      0.49    0.03    0.63
  YS02001786YS02001788 CONDUIT    178.55     0  03:02      1.47    0.34    0.29
  YS02001915YS02001910 CONDUIT     54.85     0  03:01      0.44    0.03    0.42
  YS02001918YS02001915 CONDUIT     19.00     0  03:04      0.44    0.01    0.19
  YS02001923YS02001920 CONDUIT     16.15     0  03:02      0.33    0.01    0.11
  YS02001926YS02001923 CONDUIT     16.12     0  03:02      0.39    0.02    0.10
  YS02001929YS02001926 CONDUIT     16.12     0  03:01      0.40    0.01    0.10
  YS02001920YS02001918 CONDUIT     19.01     0  03:03      0.36    0.02    0.12
  YS02001629YS02163301 CONDUIT     39.96     0  02:39      0.09    0.05    0.67
  YS02001619YS02001622 CONDUIT     35.61     0  03:00      0.55    0.05    0.29
  YS02001622YS02001625 CONDUIT     36.83     0  03:05      0.18    0.02    0.45
  YS02001625YS02001629 CONDUIT     37.13     0  02:40      0.18    0.02    0.44
  YS02163301YS02001633 CONDUIT     38.53     0  02:39      0.08    0.04    0.72
  YS02163601YS02164001 CONDUIT     76.41     0  03:15      0.12    0.07    0.77
  YS02164001YS02001641 CONDUIT     76.51     0  03:06      0.12    0.10    0.75
  YS02001641YS02001644 CONDUIT     76.30     0  03:15      0.12    0.25    0.77
  YS02001647YS02001649 CONDUIT    115.46     0  03:16      0.20    0.06    0.70
  YS02006553YS02006556 CONDUIT    121.46     0  03:04      0.20    0.10    0.71
  YS02006556YS02006558 CONDUIT    121.57     0  03:04      0.20    0.10    0.74
  YSB6556YSB1171       CONDUIT      7.12     0  02:26      0.04    0.01    0.50
  YS02001907YS02006553 CONDUIT    121.29     0  03:02      0.17    0.14    0.81
  YS02006558YS02006561 CONDUIT    177.45     0  03:01      1.98    0.39    0.35
  YS02001633YS02163601 CONDUIT     75.41     0  03:06      0.12    0.08    0.77
  YS02001644YS02001647 CONDUIT    112.74     0  03:06      0.20    0.07    0.68
  YS02001745YS02001748 CONDUIT     39.68     0  03:01      1.21    0.02    0.09
  YS02001748YS02001751 CONDUIT     44.23     0  02:55      0.94    0.02    0.22
  YS02001751YS02001754 CONDUIT     93.45     0  04:26      0.85    0.05    0.43
  YS02001754YS02001757 CONDUIT    160.43     0  04:41      0.33    0.06    0.77
  YS02001882YS02001884 CONDUIT      2.13     0  02:12      0.05    0.00    0.35
  YS02001884YS02001887 CONDUIT      6.51     0  02:08      0.05    0.01    0.45
  YS02001890YS02001895 CONDUIT     66.72     0  02:55      0.22    0.03    0.42
  YS02001895YS02001898 CONDUIT     66.67     0  02:57      0.42    0.12    0.28
  YS02001898YS02001901 CONDUIT     66.70     0  02:58      0.26    0.04    0.36
  YS02001901YS02001904 CONDUIT     66.48     0  03:02      0.22    0.10    0.41
  YS02001904YS02001907 CONDUIT     66.68     0  03:02      0.14    0.02    0.57
  YS02001887YS02001890 CONDUIT     66.92     0  02:55      0.17    0.11    0.50
  YS02001652YS02001649 CONDUIT     61.65     0  04:22      0.26    0.03    0.71
  YS02001655YS02001652 CONDUIT     55.89     0  02:59      0.91    0.03    0.46
  YS02001658YS02001655 CONDUIT     47.42     0  02:55      1.08    0.02    0.22
  YS02001661YS02001658 CONDUIT     47.42     0  02:55      1.22    0.02    0.10
  YS02001664YS02001661 CONDUIT     47.42     0  02:55      0.84    0.01    0.12
  YSB1154YSB6556       CONDUIT      7.08     0  02:22      0.19    0.01    0.39
  YSB1174YSB1171       CONDUIT      6.63     0  02:15      0.04    0.01    0.51
  YSB1171HS02004479    CONDUIT     13.08     0  02:25      0.54    0.01    0.39
  HS02004881HS02006253 CONDUIT     21.00     0  02:24      1.31    0.00    0.23
  YS02001793JiankangQianchi CONDUIT    178.75     0  03:02     11.12    0.01    0.50
  YS02001757CaochengTiaoxuchi CONDUIT    292.42     0  03:07      0.81    0.13    0.48
  WSF200WS02003060     CONDUIT    449.45     0  03:11      1.68    0.10    0.30
  1                    CONDUIT    727.31     0  03:36      3.05    0.25    0.34
  2                    CONDUIT    107.22     0  03:05      4.94    0.26    0.35
  3                    CONDUIT    250.55     0  00:00      8.26    0.40    0.46
  4                    CONDUIT      0.00     0  00:00      0.00    0.00    0.00
  CC-Pump-1            PUMP       200.00     0  03:00              1.00
  CC-Pump-2            PUMP       200.00     0  02:40              1.00
  JK-Pump-1            PUMP        59.00     0  06:11              0.20
  JK-Pump-2            PUMP       300.00     0  00:00              1.00
  XR-Pump-1            PUMP        95.00     0  00:00              1.00
  XR-Pump-2            PUMP        95.00     0  00:00              1.00
  XR-Pump-3            PUMP         0.00     0  00:00              0.00
  XR-Pump-4            PUMP        95.00     0  00:30              1.00
  
  
  ***************************
  Flow Classification Summary
  ***************************
  
  -------------------------------------------------------------------------------------
                      Adjusted    ---------- Fraction of Time in Flow Class ---------- 
                       /Actual         Up    Down  Sub   Sup   Up    Down  Norm  Inlet 
  Conduit               Length    Dry  Dry   Dry   Crit  Crit  Crit  Crit  Ltd   Ctrl  
  -------------------------------------------------------------------------------------
  WS02003066WSF200        1.00   0.07  0.00  0.00  0.00  0.93  0.00  0.00  0.77  0.00
  WS02006287WS02006284    1.00   0.05  0.02  0.00  0.73  0.21  0.00  0.00  0.81  0.00
  WS02006284WS02006280    1.00   0.05  0.00  0.00  0.00  0.00  0.00  0.95  0.00  0.00
  WS02006280WS02006229    1.00   0.05  0.00  0.00  0.00  0.00  0.00  0.95  0.00  0.00
  WS02006229WS02006228    1.00   0.00  0.00  0.00  0.98  0.00  0.00  0.02  0.00  0.00
  WS02006256WS02006235    1.00   0.00  0.00  0.00  1.00  0.00  0.00  0.00  0.00  0.00
  WS02006253WS02006251    1.00   0.04  0.01  0.00  0.95  0.00  0.00  0.00  0.00  0.00
  WS02006252WS02006251    1.00   0.10  0.00  0.00  0.00  0.00  0.90  0.00  0.00  0.00
  WS02006251WS02006249    1.00   0.00  0.00  0.00  1.00  0.00  0.00  0.00  0.31  0.00
  WS02006249WS02006248    1.00   0.00  0.02  0.00  0.87  0.00  0.10  0.00  0.00  0.00
  WS02006248WS02006247    1.00   0.03  0.00  0.00  0.97  0.00  0.00  0.00  0.21  0.00
  WS02006247WS02006245    1.00   0.02  0.00  0.00  0.98  0.00  0.00  0.00  0.00  0.00
  WS02006245WS02006243    1.00   0.02  0.00  0.00  0.93  0.00  0.00  0.05  0.01  0.00
  WS02006243WS02006242    1.00   0.01  0.00  0.00  0.99  0.00  0.00  0.00  0.29  0.00
  WS02006242WS02006240    1.00   0.00  0.00  0.00  1.00  0.00  0.00  0.00  0.00  0.00
  WS02006240WS02006239    1.00   0.00  0.00  0.00  0.94  0.00  0.00  0.05  0.01  0.00
  WS02006239WS02006238    1.00   0.00  0.00  0.00  1.00  0.00  0.00  0.00  0.01  0.00
  WS02006238WS02006235    1.00   0.00  0.00  0.00  1.00  0.00  0.00  0.00  0.00  0.00
  WS02006235WS02006234    1.00   0.00  0.00  0.00  0.94  0.00  0.06  0.00  0.00  0.00
  WS02006234WS02006232    1.00   0.00  0.00  0.00  1.00  0.00  0.00  0.00  0.13  0.00
  WS02006232WS02006231    1.00   0.00  0.00  0.00  0.99  0.00  0.01  0.00  0.00  0.00
  WS02006231WS02006230    1.00   0.00  0.00  0.00  0.28  0.00  0.71  0.00  0.00  0.00
  WS02006230WS02006229    1.00   0.00  0.00  0.00  0.98  0.00  0.00  0.02  0.01  0.00
  WS02006228WS02006109    1.00   0.00  0.00  0.00  1.00  0.00  0.00  0.00  0.00  0.00
  WS02006116WS02004401    1.00   0.03  0.00  0.00  0.97  0.00  0.00  0.00  0.00  0.00
  WS02006115WS02006116    1.00   0.03  0.00  0.00  0.96  0.00  0.00  0.01  0.00  0.00
  WS02006113WS02006111    1.00   0.02  0.00  0.00  0.00  0.97  0.00  0.00  0.14  0.00
  WS02006112WS02006115    1.00   0.03  0.00  0.00  0.97  0.00  0.00  0.00  0.00  0.00
  WS02006111WS02006112    1.00   0.03  0.00  0.00  0.97  0.00  0.00  0.00  0.98  0.00
  WS02006110WS02006113    1.00   0.01  0.01  0.00  0.98  0.00  0.00  0.00  0.00  0.00
  WS02006109WS02006110    1.00   0.00  0.01  0.00  0.98  0.00  0.01  0.00  0.00  0.00
  WS02004411WS02004412    1.00   0.05  0.00  0.00  0.95  0.00  0.00  0.00  0.00  0.00
  WS02004401WS02004402    1.00   0.03  0.00  0.00  0.97  0.00  0.00  0.00  0.00  0.00
  WS02004413WS02003067    1.00   0.05  0.02  0.00  0.00  0.00  0.94  0.00  0.00  0.00
  WS02004412WS02004413    1.00   0.05  0.00  0.00  0.95  0.00  0.00  0.00  0.03  0.00
  WS02004410WS02004411    1.00   0.05  0.00  0.00  0.95  0.00  0.00  0.00  0.04  0.00
  WS02004409WS02004410    1.00   0.05  0.00  0.00  0.95  0.00  0.00  0.00  0.04  0.00
  WS02004407WS02004409    1.00   0.05  0.00  0.00  0.95  0.00  0.00  0.00  0.89  0.00
  WS02004406WS02004407    1.00   0.00  0.04  0.00  0.95  0.00  0.00  0.00  0.00  0.00
  WS02004405WS02004406    1.00   0.00  0.00  0.00  1.00  0.00  0.00  0.00  0.00  0.00
  WS02004404WS02004405    1.00   0.00  0.00  0.00  1.00  0.00  0.00  0.00  0.00  0.00
  WS02004403WS02004404    1.00   0.00  0.03  0.00  0.97  0.00  0.00  0.00  0.01  0.00
  WS02004402WS02004403    1.00   0.03  0.00  0.00  0.97  0.00  0.00  0.00  0.00  0.00
  WS02004139WS02001211    1.00   0.00  0.00  0.00  0.99  0.00  0.01  0.00  0.00  0.00
  WS02004138WS02004139    1.00   0.00  0.00  0.00  0.99  0.01  0.00  0.00  1.00  0.00
  WS02003067WS02003066    1.00   0.06  0.01  0.00  0.93  0.00  0.00  0.00  0.00  0.00
  WS02001213WS02003059    1.00   0.00  0.00  0.00  0.99  0.00  0.00  0.00  0.00  0.00
  WS02001212WS02001213    1.00   0.01  0.00  0.00  0.69  0.00  0.31  0.00  0.00  0.00
  WS02001211WS02001212    1.00   0.00  0.01  0.00  0.99  0.00  0.00  0.00  0.00  0.00
  WS02003072WS02003073    1.00   0.00  0.00  0.00  0.00  0.00  0.00  1.00  0.00  0.00
  WS02003069WS02003072    1.00   0.00  0.00  0.00  0.99  0.01  0.00  0.00  0.38  0.00
  WS02003060WS02003069    1.00   0.00  0.00  0.00  0.98  0.02  0.00  0.00  0.20  0.00
  WS02003059WS02003060    1.00   0.00  0.00  0.00  0.99  0.01  0.00  0.00  0.01  0.00
  HS02004901HS02004770    1.00   0.05  0.00  0.00  0.95  0.00  0.00  0.00  0.03  0.00
  HS02004876HS02004881    1.00   0.03  0.00  0.00  0.97  0.00  0.00  0.00  0.00  0.00
  HS02004870HS02004876    1.00   0.01  0.00  0.00  0.99  0.00  0.00  0.00  0.95  0.00
  HS02004842HS02004848    1.00   0.00  0.05  0.00  0.95  0.00  0.00  0.00  0.71  0.00
  HS02004837HS02004842    1.00   0.00  0.00  0.00  0.99  0.01  0.00  0.00  0.11  0.00
  HS02004830HS02004837    1.00   0.00  0.00  0.00  1.00  0.00  0.00  0.00  0.99  0.00
  HS02004824HS02004830    1.00   0.00  0.00  0.00  1.00  0.00  0.00  0.00  0.00  0.00
  HS02004817HS02004824    1.00   0.00  0.00  0.00  1.00  0.00  0.00  0.00  1.00  0.00
  HS02004770HS02004777    1.00   0.00  0.05  0.00  0.95  0.00  0.00  0.00  0.07  0.00
  HS02004799HS02004480    1.00   0.00  0.03  0.00  0.93  0.00  0.03  0.00  0.00  0.00
  HS02004792HS02004799    1.00   0.00  0.00  0.00  0.98  0.02  0.00  0.00  0.98  0.00
  HS02004788HS02004792    1.00   0.00  0.00  0.00  0.99  0.01  0.00  0.00  0.98  0.00
  HS02004785HS02004788    1.00   0.00  0.00  0.00  1.00  0.00  0.00  0.00  0.00  0.00
  HS02004777HS02004785    1.00   0.00  0.00  0.00  1.00  0.00  0.00  0.00  0.21  0.00
  HS02004480HS02004478    1.00   0.06  0.00  0.00  0.76  0.00  0.00  0.18  0.00  0.00
  HS02004479HS02004480    1.00   0.03  0.00  0.00  0.97  0.00  0.00  0.00  0.16  0.00
  HS02004862HS02004870    1.00   0.00  0.00  0.00  1.00  0.00  0.00  0.00  0.06  0.00
  HS02004848HS02004852    1.00   0.05  0.00  0.00  0.95  0.00  0.00  0.00  0.69  0.00
  HS02004856HS02004862    1.00   0.00  0.08  0.00  0.92  0.00  0.00  0.00  0.73  0.00
  HS02004852HS02004856    1.00   0.05  0.01  0.00  0.94  0.00  0.00  0.00  0.83  0.00
  HS02004802HS02004478    1.00   0.05  0.01  0.00  0.94  0.00  0.00  0.00  0.01  0.00
  HS02004478WS02006287    1.00   0.06  0.00  0.00  0.94  0.00  0.00  0.00  0.81  0.00
  HS02004817HS02004807    1.00   0.00  0.05  0.00  0.95  0.00  0.00  0.00  0.00  0.00
  HS02004807HS02004802    1.00   0.05  0.00  0.00  0.94  0.00  0.00  0.00  0.01  0.00
  YS02001759YS02001757    1.00   0.00  0.00  0.00  1.00  0.00  0.00  0.00  0.17  0.00
  YS02001762YS02001759    1.00   0.00  0.00  0.00  1.00  0.00  0.00  0.00  0.05  0.00
  YS02001765YS02001762    1.00   0.00  0.00  0.00  1.00  0.00  0.00  0.00  0.23  0.00
  YS02001770YS02001767    1.00   0.00  0.00  0.00  1.00  0.00  0.00  0.00  0.00  0.00
  YS02001774YS02001770    1.00   0.00  0.06  0.00  0.94  0.00  0.00  0.00  0.07  0.00
  YS02001779YS02001774    1.00   0.00  0.00  0.00  1.00  0.00  0.00  0.00  0.28  0.00
  YS02001649YS02001757    1.00   0.00  0.00  0.00  1.00  0.00  0.00  0.00  0.19  0.00
  YS02001767YS02001765    1.00   0.00  0.00  0.00  1.00  0.00  0.00  0.00  0.01  0.00
  YS02006561YS02001783    1.00   0.08  0.00  0.00  0.00  0.92  0.00  0.00  0.72  0.00
  YS02001783YS02001784    1.00   0.00  0.08  0.00  0.92  0.00  0.00  0.00  0.09  0.00
  YS02001784YS02001785    1.00   0.00  0.00  0.00  1.00  0.00  0.00  0.00  0.26  0.00
  YS02001788YS02001790    1.00   0.00  0.00  0.00  0.09  0.91  0.00  0.00  0.99  0.00
  YS02001790YS02001791    1.00   0.00  0.00  0.00  0.02  0.98  0.00  0.00  0.37  0.00
  YS02001791YS02001793    1.00   0.00  0.00  0.00  0.00  1.00  0.00  0.00  0.00  0.00
  YS02001910YS02001907    1.00   0.00  0.00  0.00  0.97  0.00  0.00  0.03  0.13  0.00
  YS02001786YS02001788    1.00   0.00  0.00  0.00  0.09  0.91  0.00  0.00  0.00  0.00
  YS02001915YS02001910    1.00   0.00  0.00  0.00  0.99  0.01  0.00  0.00  0.25  0.00
  YS02001918YS02001915    1.00   0.00  0.01  0.00  0.98  0.02  0.00  0.00  0.81  0.00
  YS02001923YS02001920    1.00   0.00  0.00  0.00  1.00  0.00  0.00  0.00  1.00  0.00
  YS02001926YS02001923    1.00   0.00  0.04  0.00  0.00  0.00  0.96  0.00  0.00  0.00
  YS02001929YS02001926    1.00   0.00  0.05  0.00  0.95  0.00  0.00  0.00  0.87  0.00
  YS02001920YS02001918    1.00   0.00  0.01  0.00  0.99  0.00  0.00  0.00  0.00  0.00
  YS02001629YS02163301    1.00   0.07  0.00  0.00  0.92  0.00  0.00  0.00  0.00  0.00
  YS02001619YS02001622    1.00   0.05  0.00  0.00  0.95  0.00  0.00  0.00  0.00  0.00
  YS02001622YS02001625    1.00   0.05  0.00  0.00  0.95  0.00  0.00  0.00  0.14  0.00
  YS02001625YS02001629    1.00   0.05  0.03  0.00  0.90  0.00  0.02  0.00  0.00  0.00
  YS02163301YS02001633    1.00   0.00  0.07  0.00  0.93  0.00  0.00  0.00  0.00  0.00
  YS02163601YS02164001    1.00   0.00  0.04  0.00  0.96  0.00  0.00  0.00  0.00  0.00
  YS02164001YS02001641    1.00   0.01  0.03  0.00  0.96  0.00  0.00  0.00  0.07  0.00
  YS02001641YS02001644    1.00   0.00  0.01  0.00  0.99  0.00  0.00  0.00  0.00  0.00
  YS02001647YS02001649    1.00   0.00  0.08  0.00  0.92  0.00  0.00  0.00  0.01  0.00
  YS02006553YS02006556    1.00   0.02  0.00  0.00  0.98  0.00  0.00  0.00  0.03  0.00
  YS02006556YS02006558    1.00   0.00  0.00  0.00  1.00  0.00  0.00  0.00  0.00  0.00
  YSB6556YSB1171          1.00   0.03  0.02  0.00  0.95  0.00  0.00  0.00  0.00  0.00
  YS02001907YS02006553    1.00   0.00  0.03  0.00  0.97  0.00  0.00  0.00  0.00  0.00
  YS02006558YS02006561    1.00   0.08  0.00  0.00  0.00  0.92  0.00  0.00  0.71  0.00
  YS02001633YS02163601    1.00   0.00  0.01  0.00  0.99  0.00  0.00  0.00  0.20  0.00
  YS02001644YS02001647    1.00   0.00  0.08  0.00  0.92  0.00  0.00  0.00  0.00  0.00
  YS02001745YS02001748    1.00   0.00  0.00  0.00  0.00  0.00  0.00  1.00  0.00  0.00
  YS02001748YS02001751    1.00   0.00  0.00  0.00  0.97  0.03  0.00  0.00  0.81  0.00
  YS02001751YS02001754    1.00   0.00  0.00  0.00  0.91  0.00  0.00  0.09  0.03  0.00
  YS02001754YS02001757    1.00   0.00  0.00  0.00  0.99  0.01  0.00  0.00  0.27  0.00
  YS02001882YS02001884    1.00   0.07  0.00  0.00  0.93  0.00  0.00  0.00  0.00  0.00
  YS02001884YS02001887    1.00   0.04  0.01  0.00  0.95  0.00  0.00  0.00  0.00  0.00
  YS02001890YS02001895    1.00   0.00  0.07  0.00  0.92  0.00  0.00  0.00  0.00  0.00
  YS02001895YS02001898    1.00   0.08  0.00  0.00  0.92  0.00  0.01  0.00  0.00  0.00
  YS02001898YS02001901    1.00   0.07  0.01  0.00  0.92  0.00  0.00  0.00  0.02  0.00
  YS02001901YS02001904    1.00   0.07  0.00  0.00  0.93  0.00  0.00  0.00  0.00  0.00
  YS02001904YS02001907    1.00   0.00  0.07  0.00  0.93  0.00  0.00  0.00  0.00  0.00
  YS02001887YS02001890    1.00   0.00  0.00  0.00  0.97  0.00  0.03  0.00  0.00  0.00
  YS02001652YS02001649    1.00   0.00  0.00  0.00  1.00  0.00  0.00  0.00  0.27  0.00
  YS02001655YS02001652    1.00   0.00  0.00  0.00  0.91  0.00  0.00  0.09  0.03  0.00
  YS02001658YS02001655    1.00   0.00  0.06  0.00  0.90  0.03  0.00  0.00  0.80  0.00
  YS02001661YS02001658    1.00   0.06  0.00  0.00  0.00  0.94  0.00  0.00  0.74  0.00
  YS02001664YS02001661    1.00   0.05  0.00  0.00  0.95  0.00  0.00  0.00  0.86  0.00
  YSB1154YSB6556          1.00   0.05  0.00  0.00  0.95  0.00  0.00  0.00  0.02  0.00
  YSB1174YSB1171          1.00   0.04  0.01  0.00  0.96  0.00  0.00  0.00  0.00  0.00
  YSB1171HS02004479       1.00   0.03  0.00  0.00  0.96  0.00  0.00  0.00  0.13  0.00
  HS02004881HS02006253    1.00   0.04  0.00  0.00  0.70  0.02  0.00  0.25  0.50  0.00
  YS02001793JiankangQianchi    1.00   0.00  0.00  0.00  0.03  0.97  0.00  0.00  0.02  0.00
  YS02001757CaochengTiaoxuchi    1.00   0.00  0.10  0.00  0.90  0.00  0.00  0.00  0.00  0.00
  WSF200WS02003060        1.00   0.00  0.07  0.00  0.71  0.22  0.00  0.00  0.37  0.00
  1                       1.00   0.00  0.00  0.00  0.00  1.00  0.00  0.00  0.38  0.00
  2                       1.00   0.86  0.00  0.00  0.00  0.14  0.00  0.00  0.03  0.00
  3                       1.00   0.47  0.00  0.00  0.00  0.53  0.00  0.00  0.48  0.00
  4                       1.00   1.00  0.00  0.00  0.00  0.00  0.00  0.00  0.00  0.00
  
  
  *************************
  Conduit Surcharge Summary
  *************************
  
  ----------------------------------------------------------------------------
                                                           Hours        Hours 
                         --------- Hours Full --------   Above Full   Capacity
  Conduit                Both Ends  Upstream  Dnstream   Normal Flow   Limited
  ----------------------------------------------------------------------------
  WS02006229WS02006228        0.62      0.85      0.62      2.55         0.62
  WS02006256WS02006235        5.54      5.54      6.74      1.55         0.01
  WS02006252WS02006251        0.52      0.52      0.83      0.74         0.01
  WS02006251WS02006249        0.01      0.01      0.01      0.52         0.01
  WS02006249WS02006248        0.01      0.01      0.01      2.71         0.01
  WS02006247WS02006245        0.01      0.01      0.01      4.00         0.01
  WS02006243WS02006242        0.01      0.01      0.43      0.01         0.01
  WS02006242WS02006240        0.01      0.01      0.60      0.83         0.01
  WS02006240WS02006239        0.01      0.01      0.13      0.01         0.01
  WS02006239WS02006238        0.51      0.51      0.54      0.01         0.01
  WS02006238WS02006235        0.47      0.47      0.67      0.01         0.01
  WS02006235WS02006234        0.01      0.01      0.43      5.51         0.01
  WS02006234WS02006232        0.01      0.01      0.70      0.01         0.01
  WS02006232WS02006231        0.01      0.01      0.70      0.01         0.01
  WS02006231WS02006230        0.01      0.01      0.01      5.58         0.01
  WS02006230WS02006229        1.20      2.08      1.20      5.69         1.20
  WS02006228WS02006109        0.76      1.03      0.76      3.43         0.76
  WS02006111WS02006112        0.01      0.01      2.70      0.01         0.01
  WS02006110WS02006113        0.01      0.01      0.94      0.01         0.01
  WS02006109WS02006110        0.01      0.01      1.03      0.01         0.01
  WS02004404WS02004405        0.01      0.01      0.01      5.45         0.01
  WS02003072WS02003073        0.01      0.01      0.01      3.75         0.01
  YS02001793JiankangQianchi        0.01      0.01      0.09      0.01         0.01
  
  
  ***************
  Pumping Summary
  ***************
  
  ---------------------------------------------------------------------------------------------------------
                                                  Min       Avg       Max     Total     Power    % Time Off
                        Percent   Number of      Flow      Flow      Flow    Volume     Usage    Pump Curve
  Pump                 Utilized   Start-Ups       LPS       LPS       LPS  10^6 ltr     Kw-hr    Low   High
  ---------------------------------------------------------------------------------------------------------
  CC-Pump-1               27.83           5      0.00     99.40    200.00     0.799      3.70    0.0  100.0
  CC-Pump-2               68.25           2      0.00    150.34    200.00     2.712     11.78    0.0  100.0
  JK-Pump-1               10.64           2      0.00     41.79     59.00     0.064      1.25    0.0    0.0
  JK-Pump-2              100.00           1      0.00     95.69    300.00     2.054     39.03    0.0    0.0
  XR-Pump-1               93.61           4      0.00     81.76     95.00     2.109     15.95    0.0    0.0
  XR-Pump-2               95.74           3      0.00     84.29     95.00     2.337     18.59    0.0    0.0
  XR-Pump-3                0.00           0      0.00      0.00      0.00     0.000      0.00    0.0    0.0
  XR-Pump-4               74.43          10      0.00     64.53     95.00     1.339     10.03    0.0    0.0
  

  Analysis begun on:  Wed Jan  5 21:56:36 2022
  Analysis ended on:  Wed Jan  5 21:56:39 2022
  Total elapsed time: 00:00:03