
  EPA STORM WATER MANAGEMENT MODEL - VERSION 5.1 (Build 5.3.0.dev0)
  --------------------------------------------------------------

  WARNING 04: minimum elevation drop used for Conduit WS02004404WS02004405
  WARNING 03: negative offset ignored for Link YS02001904YS02001907
  
  *********************************************************
  NOTE: The summary statistics displayed in this report are
  based on results found at every computational time step,  
  not just on results from each reporting time step.
  *********************************************************
  
  ****************
  Analysis Options
  ****************
  Flow Units ............... LPS
  Process Models:
    Rainfall/Runoff ........ YES
    RDII ................... NO
    Snowmelt ............... NO
    Groundwater ............ NO
    Flow Routing ........... YES
    Ponding Allowed ........ NO
    Water Quality .......... NO
  Infiltration Method ...... HORTON
  Flow Routing Method ...... DYNWAVE
  Surcharge Method ......... EXTRAN
  Starting Date ............ 08/28/2015 08:00:00
  Ending Date .............. 08/28/2015 15:50:00
  Antecedent Dry Days ...... 8.0
  Report Time Step ......... 00:01:00
  Wet Time Step ............ 00:01:00
  Dry Time Step ............ 00:01:00
  Routing Time Step ........ 5.00 sec
  Variable Time Step ....... YES
  Maximum Trials ........... 8
  Number of Threads ........ 4
  Head Tolerance ........... 0.001500 m
  
  
  **************************        Volume         Depth
  Runoff Quantity Continuity     hectare-m            mm
  **************************     ---------       -------
  Total Precipitation ......         3.415         7.477
  Evaporation Loss .........         0.000         0.000
  Infiltration Loss ........         0.866         1.897
  Surface Runoff ...........         1.613         3.532
  Final Storage ............         0.937         2.051
  Continuity Error (%) .....        -0.018
  
  
  **************************        Volume        Volume
  Flow Routing Continuity        hectare-m      10^6 ltr
  **************************     ---------     ---------
  Dry Weather Inflow .......         0.616         6.165
  Wet Weather Inflow .......         1.612        16.122
  Groundwater Inflow .......         0.000         0.000
  RDII Inflow ..............         0.000         0.000
  External Inflow ..........         0.102         1.024
  External Outflow .........         1.691        16.915
  Flooding Loss ............         0.160         1.602
  Evaporation Loss .........         0.000         0.000
  Exfiltration Loss ........         0.000         0.000
  Initial Stored Volume ....         0.076         0.761
  Final Stored Volume ......         0.564         5.640
  Continuity Error (%) .....        -0.357
  
  
  *************************
  Highest Continuity Errors
  *************************
  Node YS02001774 (29.83%)
  Node HS02004842 (24.06%)
  Node YS02001884 (16.76%)
  Node YSB1171 (5.31%)
  Node HS02004817 (4.19%)
  
  
  ***************************
  Time-Step Critical Elements
  ***************************
  Link WS02006252WS02006251 (51.68%)
  Link 3 (31.73%)
  Link WS02006238WS02006235 (6.21%)
  Link WS02006229WS02006228 (4.44%)
  Link WS02006280WS02006229 (1.89%)
  
  
  ********************************
  Highest Flow Instability Indexes
  ********************************
  Link WS02006113WS02006111 (40)
  Link YS02001779YS02001774 (27)
  Link WS02006111WS02006112 (24)
  Link YS02001774YS02001770 (24)
  Link YS02001619YS02001622 (21)
  
  
  *************************
  Routing Time Step Summary
  *************************
  Minimum Time Step           :     0.07 sec
  Average Time Step           :     0.88 sec
  Maximum Time Step           :     5.00 sec
  Percent in Steady State     :    -0.00
  Average Iterations per Step :     4.81
  Percent Not Converging      :    34.50
  
  
  ***************************
  Subcatchment Runoff Summary
  ***************************
  
  ------------------------------------------------------------------------------------------------------------------------------
                            Total      Total      Total      Total     Imperv       Perv      Total       Total     Peak  Runoff
                           Precip      Runon       Evap      Infil     Runoff     Runoff     Runoff      Runoff   Runoff   Coeff
  Subcatchment                 mm         mm         mm         mm         mm         mm         mm    10^6 ltr      LPS
  ------------------------------------------------------------------------------------------------------------------------------
  sub0                       7.48       0.00       0.00       0.52       5.69       0.00       5.69        0.00     2.10   0.761
  sub1                       7.48       0.00       0.00       0.82       5.40       0.00       5.40        0.04    11.21   0.722
  sub2                       7.48       0.00       0.00       2.77       3.80       0.00       3.80        0.04     9.93   0.509
  sub3                       7.48       0.00       0.00       2.77       3.77       0.00       3.77        0.08    20.49   0.504
  sub4                       7.48       0.00       0.00       0.82       5.26       0.00       5.26        0.11    23.03   0.703
  sub5                       7.48       0.00       0.00       0.52       5.64       0.00       5.64        0.06    19.93   0.754
  sub7                       7.48       0.00       0.00       0.67       5.55       0.00       5.55        0.02     7.00   0.742
  sub8                       7.48       0.00       0.00       0.67       5.54       0.00       5.54        0.04    12.37   0.741
  sub9                       7.48       0.00       0.00       0.67       5.54       0.00       5.54        0.03     9.17   0.741
  sub10                      7.48       0.00       0.00       0.60       5.59       0.00       5.59        0.06    19.87   0.747
  sub11                      7.48       0.00       0.00       0.60       5.60       0.00       5.60        0.07    23.25   0.750
  sub12                      7.48       0.00       0.00       0.97       5.32       0.00       5.32        0.05    19.54   0.711
  sub14                      7.48       0.00       0.00       0.67       5.54       0.00       5.54        0.05    17.92   0.740
  sub15                      7.48       0.00       0.00       2.24       4.26       0.00       4.26        0.07    24.34   0.569
  sub16                      7.48       0.00       0.00       2.47       4.09       0.00       4.09        0.04    17.23   0.547
  sub17                      7.48       0.00       0.00       2.39       4.15       0.00       4.15        0.04    13.93   0.555
  sub22                      7.48       0.00       0.00       3.22       3.47       0.00       3.47        0.22    79.48   0.465
  sub23                      7.48       0.00       0.00       2.77       3.84       0.00       3.84        0.18    67.68   0.514
  sub60                      7.48       0.00       0.00       0.90       3.98       0.00       3.98        1.21   118.33   0.532
  sub61                      7.48       0.00       0.00       1.27       4.18       0.00       4.18        1.29   148.08   0.559
  sub62                      7.48       0.00       0.00       0.60       4.51       0.00       4.51        1.39   151.44   0.603
  sub63                      7.48       0.00       0.00       2.17       3.70       0.00       3.70        1.12   138.08   0.495
  sub64                      7.48       0.00       0.00       1.12       3.81       0.00       3.81        1.16   112.42   0.510
  sub65                      7.48       0.00       0.00       0.97       3.86       0.00       3.86        1.19   114.11   0.517
  sub66                      7.48       0.00       0.00       2.17       3.31       0.00       3.31        1.01   102.94   0.442
  sub67                      7.48       0.00       0.00       0.60       4.88       0.00       4.88        1.51   194.00   0.653
  sub68                      7.48       0.00       0.00       1.05       4.43       0.00       4.43        1.36   163.63   0.592
  sub69                      7.48       0.00       0.00       1.12       4.71       0.00       4.71        1.10   162.15   0.630
  sub70                      7.48       4.81       0.00       4.18       5.98       0.00       5.98        1.37   134.81   0.487
  sub71                      7.48       0.00       0.00       0.60       4.34       0.00       4.34        1.02   105.79   0.580
  sub72                      7.48       0.00       0.00       0.52       3.19       0.00       3.19        0.65    51.17   0.426
  sub73                      7.48       5.82       0.00       4.52       6.24       0.00       6.24        1.47   117.64   0.469
  sub74                      7.48       0.00       0.00       5.61       1.41       0.00       1.41        0.57    90.39   0.189
  
  
  ******************
  Node Depth Summary
  ******************
  
  ---------------------------------------------------------------------------------
                                 Average  Maximum  Maximum  Time of Max    Reported
                                   Depth    Depth      HGL   Occurrence   Max Depth
  Node                 Type       Meters   Meters   Meters  days hr:min      Meters
  ---------------------------------------------------------------------------------
  WS02001211           JUNCTION     0.64     0.71     5.54     0  07:48        0.71
  WS02001212           JUNCTION     0.37     0.42     5.49     0  07:47        0.42
  WS02001213           JUNCTION     0.60     0.67     5.43     0  07:46        0.67
  WS02003069           JUNCTION     0.43     0.51     5.10     0  02:44        0.51
  WS02003072           JUNCTION     0.50     0.58     4.95     0  02:45        0.58
  WS02003073           JUNCTION     0.30     0.35     4.41     0  02:45        0.35
  WS02003060           JUNCTION     0.39     0.45     5.39     0  02:44        0.45
  WS02003066           JUNCTION     0.24     0.30     5.86     0  02:37        0.30
  WS02003059           JUNCTION     0.67     0.72     5.41     0  07:46        0.72
  WS02003067           JUNCTION     0.58     0.71     6.03     0  02:36        0.71
  WS02004401           JUNCTION     0.69     0.88     6.88     0  02:33        0.87
  WS02004402           JUNCTION     0.72     0.90     6.86     0  02:33        0.90
  WS02004403           JUNCTION     0.74     0.91     6.84     0  02:33        0.91
  WS02004404           JUNCTION     0.81     0.98     6.83     0  02:33        0.98
  WS02004406           JUNCTION     0.82     0.97     6.80     0  02:34        0.97
  WS02004409           JUNCTION     0.50     0.69     6.46     0  02:35        0.69
  WS02004410           JUNCTION     0.52     0.70     6.42     0  02:36        0.70
  WS02004411           JUNCTION     0.54     0.71     6.39     0  02:36        0.71
  WS02004412           JUNCTION     0.55     0.71     6.35     0  02:36        0.71
  WS02004413           JUNCTION     0.71     0.87     6.34     0  02:36        0.87
  WS02004405           JUNCTION     0.81     0.98     6.83     0  02:34        0.98
  WS02006109           JUNCTION     0.77     1.01     7.62     0  02:31        1.01
  WS02006110           JUNCTION     0.76     0.95     7.53     0  02:31        0.95
  WS02006111           JUNCTION     0.22     0.30     7.00     0  02:31        0.29
  WS02006112           JUNCTION     0.86     1.12     7.01     0  02:31        1.08
  WS02006113           JUNCTION     0.35     0.47     7.36     0  02:31        0.47
  WS02006115           JUNCTION     0.58     0.78     6.92     0  02:33        0.78
  WS02006116           JUNCTION     0.66     0.86     6.90     0  02:33        0.86
  WS02006230           JUNCTION     0.75     1.06     7.81     0  02:30        1.06
  WS02006231           JUNCTION     0.50     0.74     7.86     0  02:30        0.73
  WS02006232           JUNCTION     0.64     0.86     7.90     0  02:30        0.86
  WS02006234           JUNCTION     0.56     0.80     7.96     0  02:30        0.79
  WS02006235           JUNCTION     0.59     0.83     7.99     0  02:30        0.82
  WS02006238           JUNCTION     0.62     0.86     8.00     0  02:30        0.84
  WS02006240           JUNCTION     0.52     0.78     8.07     0  02:30        0.77
  WS02006242           JUNCTION     0.57     0.85     8.12     0  02:30        0.83
  WS02006243           JUNCTION     0.45     0.72     8.14     0  02:30        0.71
  WS02006245           JUNCTION     0.43     0.69     8.18     0  02:30        0.68
  WS02006247           JUNCTION     0.45     0.70     8.20     0  02:30        0.69
  WS02006248           JUNCTION     0.40     0.62     8.21     0  02:30        0.62
  WS02006249           JUNCTION     0.43     0.63     8.23     0  02:31        0.63
  WS02006239           JUNCTION     0.57     0.83     8.04     0  02:30        0.81
  WS02006251           JUNCTION     0.42     0.65     8.32     0  02:31        0.65
  WS02006252           JUNCTION     0.37     0.59     8.84     0  04:49        0.59
  WS02006253           JUNCTION     0.44     0.68     8.33     0  02:31        0.68
  WS02006256           JUNCTION     1.03     1.15     8.09     0  00:00        1.13
  WS02004138           JUNCTION     0.14     0.17     7.42     0  01:40        0.17
  WS02004407           JUNCTION     0.23     0.30     6.62     0  02:34        0.30
  WS02006228           JUNCTION     0.77     1.06     7.71     0  02:31        1.05
  WS02006229           JUNCTION     0.75     1.06     7.75     0  02:30        1.06
  WS02006280           JUNCTION     0.06     0.18     8.45     0  02:14        0.18
  WS02006284           JUNCTION     0.35     0.53     8.92     0  02:14        0.53
  WS02006287           JUNCTION     0.09     0.26     9.21     0  02:14        0.26
  WSF200               JUNCTION     0.23     0.31     5.54     0  02:38        0.31
  HS02004901           JUNCTION     0.11     0.27    10.09     0  02:12        0.27
  HS02004881           JUNCTION     0.01     0.03     9.06     0  02:15        0.03
  HS02004876           JUNCTION     0.04     0.11     9.14     0  02:09        0.11
  HS02004870           JUNCTION     0.01     0.05     9.34     0  02:15        0.05
  HS02004862           JUNCTION     0.02     0.06     9.45     0  02:15        0.06
  HS02004856           JUNCTION     0.08     0.12     9.54     0  02:15        0.12
  HS02004852           JUNCTION     0.01     0.04     9.55     0  02:16        0.04
  HS02004848           JUNCTION     0.01     0.04     9.64     0  02:15        0.04
  HS02004842           JUNCTION     0.33     0.37     9.64     0  02:14        0.37
  HS02004837           JUNCTION     0.03     0.06     9.64     0  02:14        0.06
  HS02004830           JUNCTION     0.04     0.07     9.54     0  02:15        0.07
  HS02004824           JUNCTION     0.02     0.05     9.45     0  02:18        0.05
  HS02004817           JUNCTION     0.43     0.56     9.41     0  02:15        0.56
  HS02004807           JUNCTION     0.12     0.24     9.41     0  02:15        0.24
  HS02004802           JUNCTION     0.15     0.28     9.40     0  02:15        0.28
  HS02004799           JUNCTION     0.11     0.31     9.52     0  02:13        0.31
  HS02004792           JUNCTION     0.03     0.13     9.65     0  02:12        0.13
  HS02004788           JUNCTION     0.02     0.09     9.99     0  02:13        0.09
  HS02004785           JUNCTION     0.04     0.16    10.06     0  02:12        0.16
  HS02004777           JUNCTION     0.14     0.29    10.09     0  02:12        0.29
  HS02004770           JUNCTION     0.11     0.26    10.09     0  02:12        0.26
  HS02004480           JUNCTION     0.07     0.25     9.49     0  02:13        0.25
  HS02004479           JUNCTION     0.11     0.28     9.49     0  02:13        0.28
  HS02004478           JUNCTION     0.05     0.16     9.39     0  02:14        0.16
  YS02001745           JUNCTION     0.50     0.76     8.28     0  06:13        0.76
  YS02001748           JUNCTION     0.89     1.21     8.29     0  05:33        1.20
  YS02001751           JUNCTION     1.07     2.03     8.90     0  03:15        1.41
  YS02001754           JUNCTION     1.32     2.02     8.62     0  03:15        1.68
  YS02001762           JUNCTION     1.51     1.93     8.33     0  05:32        1.91
  YS02001765           JUNCTION     1.47     1.88     8.33     0  05:32        1.86
  YS02001767           JUNCTION     1.43     1.85     8.34     0  05:32        1.83
  YS02001770           JUNCTION     1.43     1.86     8.36     0  03:05        1.83
  YS02001774           JUNCTION     1.49     1.97     8.39     0  03:05        1.91
  YS02001779           JUNCTION     1.25     1.68     8.37     0  02:56        1.64
  YS02001882           JUNCTION     0.34     0.58     7.30     0  02:46        0.58
  YS02001884           JUNCTION     0.43     0.68     7.29     0  02:45        0.68
  YS02001759           JUNCTION     1.55     1.95     8.32     0  05:32        1.94
  YS02001887           JUNCTION     0.51     0.76     7.29     0  02:45        0.75
  YS02001890           JUNCTION     0.54     0.79     7.29     0  02:47        0.78
  YS02001898           JUNCTION     0.31     0.54     7.28     0  02:46        0.54
  YS02001901           JUNCTION     0.42     0.67     7.28     0  02:44        0.66
  YS02001904           JUNCTION     0.40     0.65     7.28     0  02:50        0.64
  YS02001907           JUNCTION     0.73     0.99     7.28     0  02:48        0.98
  YS02001910           JUNCTION     0.52     0.77     7.28     0  02:48        0.77
  YS02001915           JUNCTION     0.32     0.56     7.27     0  02:49        0.55
  YS02001918           JUNCTION     0.10     0.21     7.27     0  02:44        0.21
  YS02001619           JUNCTION     1.03     1.49     8.42     0  04:26        1.45
  YS02001629           JUNCTION     1.38     1.84     8.39     0  06:11        1.82
  YS02001641           JUNCTION     1.49     1.92     8.36     0  06:11        1.90
  YS02001644           JUNCTION     1.49     1.91     8.35     0  06:11        1.89
  YS02001652           JUNCTION     1.33     1.90     8.50     0  03:17        1.72
  YS02001655           JUNCTION     1.10     2.06     8.91     0  02:56        1.48
  YS02001920           JUNCTION     0.20     0.28     7.29     0  02:44        0.28
  YS02001923           JUNCTION     0.08     0.10     7.36     0  03:01        0.10
  YS02001926           JUNCTION     0.16     0.21     7.65     0  03:01        0.21
  YS02001929           JUNCTION     0.08     0.11     7.80     0  03:01        0.11
  YS02001658           JUNCTION     0.83     1.61     8.75     0  03:51        1.19
  YS02001661           JUNCTION     0.60     0.93     8.34     0  05:33        0.93
  YS02001664           JUNCTION     0.20     0.43     8.36     0  05:29        0.42
  YS02001622           JUNCTION     1.05     1.51     8.41     0  04:26        1.47
  YS02001633           JUNCTION     1.47     1.93     8.38     0  06:11        1.90
  YS02001649           JUNCTION     1.52     1.93     8.32     0  05:30        1.92
  YS02001757           JUNCTION     1.65     2.05     8.32     0  05:32        2.04
  YS02001895           JUNCTION     0.30     0.54     7.28     0  02:44        0.54
  YS02001625           JUNCTION     1.33     1.78     8.38     0  03:56        1.77
  YS02163301           JUNCTION     1.41     1.87     8.39     0  06:11        1.84
  YS02163601           JUNCTION     1.52     1.97     8.37     0  06:11        1.95
  YS02164001           JUNCTION     1.47     1.91     8.36     0  06:11        1.88
  YS02001647           JUNCTION     1.32     1.72     8.33     0  05:32        1.71
  YSB1154              JUNCTION     0.24     0.43     9.49     0  02:13        0.43
  YSB6556              JUNCTION     0.14     0.32     9.49     0  02:13        0.32
  YSB1174              JUNCTION     0.20     0.38     9.49     0  02:13        0.38
  YSB1171              JUNCTION     0.39     0.59     9.49     0  02:13        0.59
  YS02006553           JUNCTION     0.73     0.99     7.28     0  02:49        0.99
  YS02006561           JUNCTION     0.17     0.30     6.96     0  02:50        0.30
  YS02006556           JUNCTION     0.71     0.96     7.27     0  02:46        0.96
  YS02006558           JUNCTION     0.75     1.01     7.27     0  02:46        1.00
  YS02001783           JUNCTION     0.33     0.73     6.87     0  02:57        0.72
  YS02001784           JUNCTION     0.36     0.78     6.84     0  02:56        0.76
  YS02001786           JUNCTION     0.33     0.76     6.79     0  02:56        0.76
  YS02001788           JUNCTION     0.29     0.77     6.75     0  02:57        0.77
  YS02001790           JUNCTION     0.40     1.41     7.05     0  02:53        1.06
  YS02001791           JUNCTION     0.39     1.23     6.70     0  02:52        1.18
  YS02001793           JUNCTION     0.55     3.09     7.92     0  02:48        1.78
  WS02004139           JUNCTION     0.58     0.65     5.56     0  07:48        0.65
  WSC                  OUTFALL      0.30     0.35     1.02     0  02:46        0.35
  3                    OUTFALL      0.08     0.13     6.13     0  00:00        0.13
  4                    OUTFALL      0.03     0.13     7.13     0  02:31        0.13
  5                    OUTFALL      0.00     0.00     5.00     0  00:00        0.00
  JK-storage           STORAGE      2.22     5.80     6.60     0  02:55        5.80
  CC-storage           STORAGE      0.89     1.27     8.27     0  06:14        1.27
  XR-storage           STORAGE      7.32     7.72     5.72     0  02:42        7.72
  
  
  *******************
  Node Inflow Summary
  *******************
  
  -------------------------------------------------------------------------------------------------
                                  Maximum  Maximum                  Lateral       Total        Flow
                                  Lateral    Total  Time of Max      Inflow      Inflow     Balance
                                   Inflow   Inflow   Occurrence      Volume      Volume       Error
  Node                 Type           LPS      LPS  days hr:min    10^6 ltr    10^6 ltr     Percent
  -------------------------------------------------------------------------------------------------
  WS02001211           JUNCTION      7.35   292.88     0  07:50       0.207         6.3       0.600
  WS02001212           JUNCTION      0.00   293.19     0  07:50           0        6.26       0.332
  WS02001213           JUNCTION      0.00   293.63     0  07:50           0        6.24       0.387
  WS02003069           JUNCTION      0.32   753.28     0  02:44     0.00902        14.1       0.236
  WS02003072           JUNCTION      0.00   753.04     0  02:44           0        14.1       0.284
  WS02003073           JUNCTION      1.82   754.84     0  02:45      0.0514        14.1       0.326
  WS02003060           JUNCTION     16.53   753.31     0  02:43       0.466        14.1       0.221
  WS02003066           JUNCTION      0.00   565.03     0  02:37           0        7.49       0.065
  WS02003059           JUNCTION      0.00   294.66     0  07:50           0        6.22       0.649
  WS02003067           JUNCTION      0.00   564.96     0  02:37           0         7.5       0.133
  WS02004401           JUNCTION      0.00   571.37     0  02:32           0        7.74       0.288
  WS02004402           JUNCTION      0.00   569.37     0  02:32           0        7.72       0.271
  WS02004403           JUNCTION      0.00   568.38     0  02:33           0         7.7       0.246
  WS02004404           JUNCTION      0.16   568.16     0  02:33     0.00457        7.68       0.184
  WS02004406           JUNCTION      0.00   568.57     0  02:34           0        7.65       0.449
  WS02004409           JUNCTION      0.00   567.85     0  02:34           0        7.61       0.236
  WS02004410           JUNCTION      0.00   566.34     0  02:34           0        7.59       0.265
  WS02004411           JUNCTION      0.00   565.68     0  02:36           0        7.57       0.271
  WS02004412           JUNCTION      0.00   565.25     0  02:36           0        7.55       0.290
  WS02004413           JUNCTION      0.00   564.99     0  02:36           0        7.53       0.425
  WS02004405           JUNCTION      0.04   568.33     0  02:34     0.00107        7.67       0.275
  WS02006109           JUNCTION      1.23   570.76     0  02:31      0.0347        7.83       0.270
  WS02006110           JUNCTION      0.00   570.77     0  02:31           0        7.81       0.254
  WS02006111           JUNCTION      0.00   593.52     0  02:31           0        7.78       0.057
  WS02006112           JUNCTION     13.93   581.80     0  02:31      0.0356        7.81       0.384
  WS02006113           JUNCTION      0.00   572.01     0  02:31           0        7.79       0.127
  WS02006115           JUNCTION      0.00   593.52     0  02:31           0        7.78       0.270
  WS02006116           JUNCTION      0.00   576.11     0  02:32           0        7.76       0.257
  WS02006230           JUNCTION     10.28   396.89     0  05:01        0.29        6.69       0.196
  WS02006231           JUNCTION      0.00   386.91     0  04:52           0        6.41       0.180
  WS02006232           JUNCTION      0.00   386.96     0  04:52           0        6.42       0.250
  WS02006234           JUNCTION      0.00   388.37     0  04:52           0        6.43       0.124
  WS02006235           JUNCTION      0.00   388.38     0  04:52           0        6.47       0.164
  WS02006238           JUNCTION      0.00   316.53     0  07:31           0        4.54       0.165
  WS02006240           JUNCTION      0.00   320.31     0  07:12           0        4.53       0.256
  WS02006242           JUNCTION      0.00   329.88     0  07:11           0        4.53       0.318
  WS02006243           JUNCTION      0.00   339.16     0  07:11           0        4.52      -0.140
  WS02006245           JUNCTION      0.00   345.14     0  07:11           0        4.53       0.267
  WS02006247           JUNCTION      0.00   350.40     0  07:11           0        4.54       0.153
  WS02006248           JUNCTION      0.00   355.32     0  07:11           0        4.54       0.084
  WS02006249           JUNCTION      0.00   426.97     0  02:30           0           5       0.213
  WS02006239           JUNCTION      0.00   316.50     0  07:30           0        4.53       0.255
  WS02006251           JUNCTION      0.08   434.23     0  02:30     0.00217        5.04       0.178
  WS02006252           JUNCTION      0.00   400.00     0  04:10           0         4.8       0.009
  WS02006253           JUNCTION      2.10    63.56     0  02:15      0.0046       0.238       1.592
  WS02006256           JUNCTION      0.00   300.00     0  00:00           0        4.41       0.066
  WS02004138           JUNCTION      0.00   285.00     0  01:40           0        6.13       0.075
  WS02004407           JUNCTION      0.00   568.03     0  02:34           0        7.62       0.104
  WS02006228           JUNCTION      0.00   569.51     0  02:31           0        7.81       0.188
  WS02006229           JUNCTION      0.00   568.40     0  02:30           0        7.83       0.176
  WS02006280           JUNCTION      0.00   314.57     0  02:15           0        1.15       0.006
  WS02006284           JUNCTION      0.10   314.54     0  02:14      0.0027        1.16       0.098
  WS02006287           JUNCTION      0.00   314.37     0  02:14           0        1.15       0.063
  WSF200               JUNCTION      0.00   565.03     0  02:37           0        7.48       0.064
  HS02004901           JUNCTION     17.23    17.23     0  02:08      0.0428       0.043       4.264
  HS02004881           JUNCTION      7.00    61.98     0  02:15      0.0187       0.199       0.175
  HS02004876           JUNCTION     11.21    54.99     0  02:14      0.0359       0.181       0.295
  HS02004870           JUNCTION     12.37    44.00     0  02:14      0.0354       0.145       0.073
  HS02004862           JUNCTION     10.13    32.43     0  02:15      0.0411        0.11       0.155
  HS02004856           JUNCTION      9.17    22.37     0  02:14      0.0266      0.0703       2.086
  HS02004852           JUNCTION      0.00    13.77     0  02:15           0      0.0438       0.119
  HS02004848           JUNCTION     20.49    20.49     0  02:17      0.0848      0.0848       0.051
  HS02004842           JUNCTION      0.00     7.49     0  02:26           0       0.054      31.685
  HS02004837           JUNCTION     26.22    32.33     0  02:14       0.241       0.282       0.288
  HS02004830           JUNCTION      0.15    32.45     0  02:14     0.00423       0.272       0.456
  HS02004824           JUNCTION     23.08    55.25     0  02:17       0.111       0.382       0.141
  HS02004817           JUNCTION      0.60    55.85     0  02:18      0.0169       0.398       4.369
  HS02004807           JUNCTION     23.25    77.11     0  02:16      0.0651       0.447       0.955
  HS02004802           JUNCTION      0.00    77.68     0  02:17           0       0.442       0.926
  HS02004799           JUNCTION     17.92   202.48     0  02:12      0.0527        0.62       0.370
  HS02004792           JUNCTION     79.76   184.85     0  02:12       0.227       0.567       0.071
  HS02004788           JUNCTION     26.01   107.45     0  02:12        0.12       0.341       0.115
  HS02004785           JUNCTION      0.15    81.81     0  02:12     0.00423       0.223       0.218
  HS02004777           JUNCTION      0.03    82.20     0  02:11    0.000846       0.223       2.373
  HS02004770           JUNCTION     67.68    83.49     0  02:10       0.183       0.224       1.398
  HS02004480           JUNCTION      0.00   238.92     0  02:13           0       0.727       0.106
  HS02004479           JUNCTION      0.00    37.18     0  02:14           0        0.12       0.614
  HS02004478           JUNCTION      0.00   314.35     0  02:14           0        1.15       0.052
  YS02001745           JUNCTION    118.33   216.05     0  03:46        1.21        1.23       0.580
  YS02001748           JUNCTION      0.04   427.25     0  02:59     0.00127        1.27       1.619
  YS02001751           JUNCTION      0.01   469.81     0  03:02     0.00031        1.23       1.747
  YS02001754           JUNCTION      0.26   230.35     0  03:01     0.00733        1.17       2.080
  YS02001762           JUNCTION      0.00   182.55     0  02:58           0        1.32       1.622
  YS02001765           JUNCTION      0.00   182.24     0  02:54           0        1.32       1.881
  YS02001767           JUNCTION      0.54   181.28     0  02:58      0.0151        1.34       2.749
  YS02001770           JUNCTION    151.59   190.73     0  02:30        1.39        1.41       2.283
  YS02001774           JUNCTION      0.00    56.84     0  02:11           0      0.0847      42.508
  YS02001779           JUNCTION      0.01    54.57     0  03:07    0.000141      0.0363      71.568
  YS02001882           JUNCTION      0.00     7.06     0  02:52           0     0.00867      27.069
  YS02001884           JUNCTION      0.00    16.60     0  02:09           0      0.0313      20.139
  YS02001759           JUNCTION    148.12   328.35     0  02:58        1.29        2.57       0.900
  YS02001887           JUNCTION    194.45   198.65     0  02:41        1.52        1.54       0.494
  YS02001890           JUNCTION      0.00   199.21     0  02:41           0         1.5       0.551
  YS02001898           JUNCTION      0.00   200.75     0  02:40           0        1.49       0.170
  YS02001901           JUNCTION      0.00   200.04     0  02:47           0        1.49       0.398
  YS02001904           JUNCTION      0.00   204.52     0  02:50           0        1.49       0.370
  YS02001907           JUNCTION      0.00   388.16     0  02:49           0        3.22       0.708
  YS02001910           JUNCTION      0.00   176.77     0  02:49           0        1.74       0.613
  YS02001915           JUNCTION    105.81   163.43     0  02:59        1.02        1.75       0.287
  YS02001918           JUNCTION      0.00    55.56     0  03:03           0       0.727       0.188
  YS02001619           JUNCTION    102.94   102.94     0  02:50        1.01        1.01       1.142
  YS02001629           JUNCTION      0.00   202.49     0  03:20           0       0.942       2.990
  YS02001641           JUNCTION      0.00   300.09     0  02:32           0        2.03       1.037
  YS02001644           JUNCTION    112.46   399.79     0  02:32        1.16        3.16       0.823
  YS02001652           JUNCTION      0.00   235.74     0  02:58           0        1.08       2.003
  YS02001655           JUNCTION      0.15   436.17     0  02:54     0.00434        1.14       1.890
  YS02001920           JUNCTION      2.87    54.05     0  03:01      0.0809       0.729       0.320
  YS02001923           JUNCTION      0.04    51.18     0  03:01     0.00106       0.649       0.057
  YS02001926           JUNCTION      0.05    51.21     0  03:01     0.00147        0.65       0.397
  YS02001929           JUNCTION     51.17    51.17     0  03:01       0.649       0.649       0.056
  YS02001658           JUNCTION      0.00   418.31     0  03:41           0        1.25       1.058
  YS02001661           JUNCTION      0.00   356.71     0  03:42           0        1.61       0.724
  YS02001664           JUNCTION    138.08   252.97     0  04:43        1.12        1.51       0.137
  YS02001622           JUNCTION      0.00   144.30     0  03:22           0           1       3.219
  YS02001633           JUNCTION    114.31   301.86     0  02:32        1.19        2.09       1.551
  YS02001649           JUNCTION      0.00   606.03     0  02:31           0        4.14       0.899
  YS02001757           JUNCTION      0.00   987.47     0  02:31           0        7.76       1.201
  YS02001895           JUNCTION      0.00   197.00     0  02:41           0         1.5       0.274
  YS02001625           JUNCTION      0.00   202.69     0  03:20           0       0.976       4.144
  YS02163301           JUNCTION      0.00   199.15     0  02:32           0       0.929       2.627
  YS02163601           JUNCTION      0.11   304.78     0  02:32      0.0031        2.05       1.486
  YS02164001           JUNCTION      0.00   302.60     0  02:32           0        2.03       0.975
  YS02001647           JUNCTION      0.00   399.89     0  02:32           0        3.12       0.876
  YSB1154              JUNCTION     19.93    19.93     0  02:12      0.0639      0.0652       2.264
  YSB6556              JUNCTION      0.00    19.93     0  02:14           0      0.0661       1.924
  YSB1174              JUNCTION     19.54    19.54     0  02:07      0.0464      0.0474       2.783
  YSB1171              JUNCTION      0.00    37.14     0  02:13           0       0.119       5.610
  YS02006553           JUNCTION      0.00   375.15     0  02:49           0        3.21       0.458
  YS02006561           JUNCTION      0.00   571.23     0  02:50           0        4.55       0.003
  YS02006556           JUNCTION      0.00   372.47     0  02:49           0        3.22       0.331
  YS02006558           JUNCTION    164.51   545.80     0  02:50        1.39        4.58       0.115
  YS02001783           JUNCTION      0.00   528.75     0  02:55           0        4.54       0.039
  YS02001784           JUNCTION      1.06   525.29     0  02:45      0.0299        4.57       0.064
  YS02001786           JUNCTION      0.06   521.57     0  02:45     0.00159        4.57       0.061
  YS02001788           JUNCTION      0.07   519.57     0  02:46       0.002        4.57       0.035
  YS02001790           JUNCTION      0.15   536.17     0  02:52     0.00437        4.57       0.041
  YS02001791           JUNCTION      0.00   517.65     0  02:46           0        4.57       0.021
  YS02001793           JUNCTION      0.00   766.03     0  02:48           0        4.58      -0.034
  WS02004139           JUNCTION      0.32   285.36     0  01:40     0.00905        6.13       0.628
  WSC                  OUTFALL       0.00   754.86     0  02:46           0          14       0.000
  3                    OUTFALL       0.00   250.55     0  00:00           0        2.44       0.000
  4                    OUTFALL       0.00   161.03     0  02:31           0       0.443       0.000
  5                    OUTFALL       0.00     0.00     0  00:00           0           0       0.000 ltr
  JK-storage           STORAGE       0.00  1099.40     0  02:47           0        4.73      -0.577
  CC-storage           STORAGE       0.00   987.58     0  02:30           0        7.67       0.577
  XR-storage           STORAGE     391.57   391.57     0  02:47        7.67        8.27      -0.001
  
  
  **********************
  Node Surcharge Summary
  **********************
  
  Surcharging occurs when water rises above the top of the highest conduit.
  ---------------------------------------------------------------------
                                               Max. Height   Min. Depth
                                   Hours       Above Crown    Below Rim
  Node                 Type      Surcharged         Meters       Meters
  ---------------------------------------------------------------------
  WS02006109           JUNCTION        2.03          0.185        1.635
  WS02006110           JUNCTION        0.33          0.036        1.814
  WS02006112           JUNCTION        0.65          0.123        1.557
  WS02006231           JUNCTION        0.07          0.025        1.505
  WS02006232           JUNCTION        2.35          0.163        1.317
  WS02006234           JUNCTION        0.26          0.084        1.156
  WS02006235           JUNCTION        1.01          0.117        1.173
  WS02006238           JUNCTION        1.81          0.135        1.295
  WS02006240           JUNCTION        0.21          0.065        1.325
  WS02006242           JUNCTION        1.26          0.117        0.703
  WS02006243           JUNCTION        0.03          0.014        0.756
  WS02006239           JUNCTION        0.33          0.089        1.201
  WS02006252           JUNCTION        2.37          0.193        0.907
  WS02006228           JUNCTION        1.60          0.227        1.973
  YS02001748           JUNCTION        3.08          0.133        1.057
  YS02001751           JUNCTION        4.35          1.026        0.174
  YS02001754           JUNCTION        5.01          0.966        0.184
  YS02001762           JUNCTION        5.46          0.925        0.225
  YS02001765           JUNCTION        5.42          0.878        0.222
  YS02001767           JUNCTION        5.39          0.848        0.182
  YS02001770           JUNCTION        5.32          0.833        0.087
  YS02001774           JUNCTION        5.45          0.969        0.081
  YS02001779           JUNCTION        4.82          0.680        0.000
  YS02001759           JUNCTION        5.47          0.951        0.259
  YS02001619           JUNCTION        4.23          0.491        0.119
  YS02001629           JUNCTION        4.25          0.459        0.011
  YS02001641           JUNCTION        5.44          0.920        0.180
  YS02001644           JUNCTION        5.44          0.913        0.007
  YS02001652           JUNCTION        5.17          0.870        0.260
  YS02001655           JUNCTION        4.43          1.059        0.141
  YS02001658           JUNCTION        2.98          0.609        0.691
  YS02001622           JUNCTION        4.33          0.507        0.113
  YS02001633           JUNCTION        5.42          0.907        0.153
  YS02001649           JUNCTION        5.46          0.934        0.116
  YS02001757           JUNCTION        5.52          1.055        0.155
  YS02001625           JUNCTION        5.22          0.780        0.000
  YS02163301           JUNCTION        5.36          0.869        0.161
  YS02163601           JUNCTION        5.46          0.973        0.107
  YS02164001           JUNCTION        5.43          0.907        0.193
  YS02001647           JUNCTION        5.20          0.723        0.177
  YS02001790           JUNCTION        1.24          0.606        0.551
  YS02001791           JUNCTION        1.38          0.426        1.494
  YS02001793           JUNCTION        1.61          2.091        0.509
  
  
  *********************
  Node Flooding Summary
  *********************
  
  Flooding refers to all water that overflows a node, whether it ponds or not.
  --------------------------------------------------------------------------
                                                             Total   Maximum
                                 Maximum   Time of Max       Flood    Ponded
                        Hours       Rate    Occurrence      Volume     Depth
  Node                 Flooded       LPS   days hr:min    10^6 ltr    Meters
  --------------------------------------------------------------------------
  YS02001779              0.01     11.21      0  03:05       0.000     0.000
  YS02001625              0.01      4.48      0  06:11       0.000     0.000
  JK-storage              0.92    215.83      0  02:57       0.347     0.000
  XR-storage              3.62    201.57      0  02:47       1.255     0.000
  
  
  **********************
  Storage Volume Summary
  **********************
  
  --------------------------------------------------------------------------------------------------
                         Average     Avg  Evap Exfil       Maximum     Max    Time of Max    Maximum
                          Volume    Pcnt  Pcnt  Pcnt        Volume    Pcnt     Occurrence    Outflow
  Storage Unit           1000 m3    Full  Loss  Loss       1000 m3    Full    days hr:min        LPS
  --------------------------------------------------------------------------------------------------
  JK-storage               0.112      38     0     0         0.291     100       0  02:55     536.08
  CC-storage               2.468      16     0     0         3.534      23       0  06:14     400.00
  XR-storage               0.879      95     0     0         0.926     100       0  02:42     285.00
  
  
  ***********************
  Outfall Loading Summary
  ***********************
  
  -----------------------------------------------------------
                         Flow       Avg       Max       Total
                         Freq      Flow      Flow      Volume
  Outfall Node           Pcnt       LPS       LPS    10^6 ltr
  -----------------------------------------------------------
  WSC                   99.99    574.93    754.86      14.030
  3                     85.34    138.83    250.55       2.441
  4                     38.63     52.93    161.03       0.443
  5                      0.00      0.00      0.00       0.000
  -----------------------------------------------------------
  System                55.99    766.69   1086.01      16.915
  
  
  ********************
  Link Flow Summary
  ********************
  
  -----------------------------------------------------------------------------
                                 Maximum  Time of Max   Maximum    Max/    Max/
                                  |Flow|   Occurrence   |Veloc|    Full    Full
  Link                 Type          LPS  days hr:min     m/sec    Flow   Depth
  -----------------------------------------------------------------------------
  WS02003066WSF200     CONDUIT    565.03     0  02:37      2.82    0.10    0.23
  WS02006287WS02006284 CONDUIT    314.45     0  02:14      1.87    0.15    0.27
  WS02006284WS02006280 CONDUIT    314.57     0  02:15      2.11    0.13    0.25
  WS02006280WS02006229 CONDUIT    314.57     0  02:15      3.39    0.07    0.18
  WS02006229WS02006228 CONDUIT    569.51     0  02:31      1.13    1.89    1.00
  WS02006256WS02006235 CONDUIT    166.25     0  00:01      2.58    1.76    1.00
  WS02006253WS02006251 CONDUIT     77.33     0  02:14      0.57    0.23    0.94
  WS02006252WS02006251 CONDUIT    400.82     0  06:40      3.19    1.47    1.00
  WS02006251WS02006249 CONDUIT    426.97     0  02:30      1.18    1.23    0.91
  WS02006249WS02006248 CONDUIT    355.32     0  07:11      1.16    1.95    0.88
  WS02006248WS02006247 CONDUIT    350.40     0  07:11      1.13    0.76    0.93
  WS02006247WS02006245 CONDUIT    345.14     0  07:11      1.09    2.74    0.98
  WS02006245WS02006243 CONDUIT    339.16     0  07:11      1.17    1.00    0.99
  WS02006243WS02006242 CONDUIT    329.88     0  07:11      0.98    0.70    1.00
  WS02006242WS02006240 CONDUIT    320.31     0  07:12      0.89    1.27    1.00
  WS02006240WS02006239 CONDUIT    316.50     0  07:30      0.89    1.00    1.00
  WS02006239WS02006238 CONDUIT    316.53     0  07:31      0.82    1.01    1.00
  WS02006238WS02006235 CONDUIT    316.53     0  07:31      1.25    0.71    1.00
  WS02006235WS02006234 CONDUIT    388.37     0  04:52      1.03    4.10    1.00
  WS02006234WS02006232 CONDUIT    386.96     0  04:52      1.13    0.78    1.00
  WS02006232WS02006231 CONDUIT    386.91     0  04:52      1.05    0.81    1.00
  WS02006231WS02006230 CONDUIT    386.61     0  05:01      1.35    5.86    0.99
  WS02006230WS02006229 CONDUIT    396.92     0  05:01      1.03    8.83    1.00
  WS02006228WS02006109 CONDUIT    569.53     0  02:31      1.13    2.49    1.00
  WS02006116WS02004401 CONDUIT    571.37     0  02:32      0.80    0.79    0.87
  WS02006115WS02006116 CONDUIT    576.11     0  02:32      0.90    0.74    0.79
  WS02006113WS02006111 CONDUIT    593.52     0  02:31      2.51    0.71    0.48
  WS02006112WS02006115 CONDUIT    593.52     0  02:31      0.81    0.35    0.88
  WS02006111WS02006112 CONDUIT    574.83     0  02:31      1.58    0.27    0.68
  WS02006110WS02006113 CONDUIT    572.01     0  02:31      1.34    0.52    0.79
  WS02006109WS02006110 CONDUIT    570.77     0  02:31      1.14    1.10    1.00
  WS02004411WS02004412 CONDUIT    565.25     0  02:36      0.95    0.80    0.71
  WS02004401WS02004402 CONDUIT    569.37     0  02:32      0.77    0.68    0.89
  WS02004413WS02003067 CONDUIT    564.96     0  02:37      1.14    0.24    0.60
  WS02004412WS02004413 CONDUIT    564.99     0  02:36      0.85    0.38    0.79
  WS02004410WS02004411 CONDUIT    565.68     0  02:36      0.96    0.77    0.70
  WS02004409WS02004410 CONDUIT    566.34     0  02:34      0.99    0.73    0.69
  WS02004407WS02004409 CONDUIT    567.85     0  02:34      1.51    0.20    0.50
  WS02004406WS02004407 CONDUIT    568.03     0  02:34      1.07    0.25    0.64
  WS02004405WS02004406 CONDUIT    568.57     0  02:34      0.73    1.12    0.97
  WS02004404WS02004405 CONDUIT    568.29     0  02:34      0.84    5.57    0.98
  WS02004403WS02004404 CONDUIT    568.00     0  02:33      0.74    0.41    0.95
  WS02004402WS02004403 CONDUIT    568.38     0  02:33      0.76    0.82    0.91
  WS02004139WS02001211 CONDUIT    285.54     0  07:50      0.69    0.36    0.52
  WS02004138WS02004139 CONDUIT    285.04     0  01:40      2.94    0.06    0.38
  WS02003067WS02003066 CONDUIT    565.03     0  02:37      1.24    0.18    0.42
  WS02001213WS02003059 CONDUIT    294.66     0  07:50      0.65    0.49    0.69
  WS02001212WS02001213 CONDUIT    293.63     0  07:50      1.19    0.45    0.39
  WS02001211WS02001212 CONDUIT    293.19     0  07:50      0.67    0.22    0.57
  WS02003072WS02003073 CONDUIT    753.02     0  02:45      1.60    1.63    0.43
  WS02003069WS02003072 CONDUIT    753.04     0  02:44      1.51    0.36    0.45
  WS02003060WS02003069 CONDUIT    752.96     0  02:44      1.77    0.29    0.40
  WS02003059WS02003060 CONDUIT    296.14     0  07:50      0.82    0.19    0.59
  HS02004901HS02004770 CONDUIT     16.17     0  02:11      0.06    0.06    0.38
  HS02004876HS02004881 CONDUIT     55.65     0  02:15      0.81    0.59    0.10
  HS02004870HS02004876 CONDUIT     43.97     0  02:15      0.55    0.03    0.11
  HS02004842HS02004848 CONDUIT      7.49     0  02:26      0.04    0.00    0.29
  HS02004837HS02004842 CONDUIT      7.78     0  02:27      0.41    0.00    0.30
  HS02004830HS02004837 CONDUIT     32.30     0  02:14      0.50    0.03    0.09
  HS02004824HS02004830 CONDUIT     32.45     0  02:15      0.54    0.04    0.09
  HS02004817HS02004824 CONDUIT     55.25     0  02:18      0.18    0.02    0.44
  HS02004770HS02004777 CONDUIT     82.17     0  02:11      0.30    0.15    0.39
  HS02004799HS02004480 CONDUIT    202.18     0  02:12      0.74    0.26    0.39
  HS02004792HS02004799 CONDUIT    184.73     0  02:12      0.84    0.11    0.31
  HS02004788HS02004792 CONDUIT    107.35     0  02:13      0.97    0.07    0.16
  HS02004785HS02004788 CONDUIT     81.70     0  02:13      0.63    0.62    0.18
  HS02004777HS02004785 CONDUIT     81.66     0  02:12      0.36    0.10    0.32
  HS02004480HS02004478 CONDUIT    238.83     0  02:13      1.15    1.01    0.30
  HS02004479HS02004480 CONDUIT     37.51     0  02:15      0.16    0.04    0.38
  HS02004862HS02004870 CONDUIT     32.39     0  02:15      0.56    0.03    0.08
  HS02004848HS02004852 CONDUIT     13.77     0  02:15      0.38    0.02    0.05
  HS02004856HS02004862 CONDUIT     22.33     0  02:15      0.42    0.02    0.08
  HS02004852HS02004856 CONDUIT     13.72     0  02:16      0.18    0.02    0.11
  HS02004802HS02004478 CONDUIT     78.37     0  02:17      0.37    0.07    0.31
  HS02004478WS02006287 CONDUIT    314.37     0  02:14      1.57    0.09    0.22
  HS02004817HS02004807 CONDUIT     56.81     0  02:19      0.14    0.03    0.57
  HS02004807HS02004802 CONDUIT     77.68     0  02:17      0.31    0.15    0.36
  YS02001759YS02001757 CONDUIT    330.89     0  02:58      0.42    0.24    1.00
  YS02001762YS02001759 CONDUIT    185.13     0  02:58      0.24    0.21    1.00
  YS02001765YS02001762 CONDUIT    182.55     0  02:58      0.23    0.17    1.00
  YS02001770YS02001767 CONDUIT    180.75     0  02:58      0.32    0.72    1.00
  YS02001774YS02001770 CONDUIT     56.84     0  02:11      0.14    0.04    1.00
  YS02001779YS02001774 CONDUIT     54.57     0  03:07      0.09    0.03    1.00
  YS02001649YS02001757 CONDUIT    606.21     0  02:31      0.77    0.37    1.00
  YS02001767YS02001765 CONDUIT    182.24     0  02:54      0.26    0.23    1.00
  YS02006561YS02001783 CONDUIT    528.75     0  02:55      2.04    0.27    0.63
  YS02001783YS02001784 CONDUIT    524.23     0  02:45      1.47    0.72    0.94
  YS02001784YS02001785 CONDUIT    521.51     0  02:45      1.57    1.21    0.96
  YS02001788YS02001790 CONDUIT    536.01     0  02:52      2.12    0.40    0.98
  YS02001790YS02001791 CONDUIT    517.65     0  02:46      2.51    0.56    1.00
  YS02001791YS02001793 CONDUIT    766.03     0  02:48      5.11    0.33    1.00
  YS02001910YS02001907 CONDUIT    179.47     0  02:49      0.49    0.10    0.87
  YS02001786YS02001788 CONDUIT    519.49     0  02:46      2.06    1.00    0.96
  YS02001915YS02001910 CONDUIT    176.77     0  02:49      0.45    0.09    0.66
  YS02001918YS02001915 CONDUIT     58.70     0  02:59      0.44    0.03    0.38
  YS02001923YS02001920 CONDUIT     51.18     0  03:01      0.54    0.02    0.19
  YS02001926YS02001923 CONDUIT     51.14     0  03:01      0.60    0.07    0.17
  YS02001929YS02001926 CONDUIT     51.16     0  03:01      0.64    0.02    0.16
  YS02001920YS02001918 CONDUIT     55.56     0  03:03      0.54    0.05    0.24
  YS02001629YS02163301 CONDUIT    199.15     0  02:32      0.25    0.25    1.00
  YS02001619YS02001622 CONDUIT    144.30     0  03:22      0.74    0.21    1.00
  YS02001622YS02001625 CONDUIT    202.69     0  03:20      0.31    0.11    1.00
  YS02001625YS02001629 CONDUIT    202.49     0  03:20      0.30    0.10    1.00
  YS02163301YS02001633 CONDUIT    195.87     0  02:32      0.25    0.18    1.00
  YS02163601YS02164001 CONDUIT    302.60     0  02:32      0.39    0.27    1.00
  YS02164001YS02001641 CONDUIT    300.09     0  02:32      0.38    0.41    1.00
  YS02001641YS02001644 CONDUIT    294.95     0  02:32      0.38    0.95    1.00
  YS02001647YS02001649 CONDUIT    438.55     0  02:31      0.57    0.23    1.00
  YS02006553YS02006556 CONDUIT    372.47     0  02:49      0.49    0.32    0.95
  YS02006556YS02006558 CONDUIT    384.08     0  02:50      0.49    0.30    0.98
  YSB6556YSB1171       CONDUIT     20.34     0  02:15      0.08    0.02    0.65
  YS02001907YS02006553 CONDUIT    375.15     0  02:49      0.42    0.44    1.00
  YS02006558YS02006561 CONDUIT    571.23     0  02:50      2.91    1.26    0.67
  YS02001633YS02163601 CONDUIT    304.67     0  02:32      0.39    0.32    1.00
  YS02001644YS02001647 CONDUIT    399.89     0  02:32      0.52    0.23    1.00
  YS02001745YS02001748 CONDUIT    289.02     0  03:45      1.56    0.11    0.88
  YS02001748YS02001751 CONDUIT    469.79     0  03:02      1.21    0.24    1.00
  YS02001751YS02001754 CONDUIT    230.09     0  03:01      1.05    0.11    1.00
  YS02001754YS02001757 CONDUIT    231.01     0  03:01      0.33    0.09    1.00
  YS02001882YS02001884 CONDUIT      7.06     0  02:52      0.06    0.01    0.60
  YS02001884YS02001887 CONDUIT     16.60     0  02:09      0.07    0.02    0.69
  YS02001890YS02001895 CONDUIT    197.00     0  02:41      0.36    0.09    0.66
  YS02001895YS02001898 CONDUIT    200.75     0  02:40      0.51    0.35    0.52
  YS02001898YS02001901 CONDUIT    200.04     0  02:47      0.41    0.13    0.60
  YS02001901YS02001904 CONDUIT    204.52     0  02:50      0.38    0.32    0.65
  YS02001904YS02001907 CONDUIT    211.52     0  02:49      0.31    0.07    0.81
  YS02001887YS02001890 CONDUIT    199.21     0  02:41      0.32    0.34    0.75
  YS02001652YS02001649 CONDUIT    235.16     0  03:01      0.36    0.12    1.00
  YS02001655YS02001652 CONDUIT    235.74     0  02:58      1.11    0.11    1.00
  YS02001658YS02001655 CONDUIT    436.02     0  02:54      1.40    0.18    1.00
  YS02001661YS02001658 CONDUIT    418.31     0  03:41      1.63    0.16    0.93
  YS02001664YS02001661 CONDUIT    286.64     0  04:44      1.38    0.09    0.62
  YSB1154YSB6556       CONDUIT     19.93     0  02:14      0.19    0.04    0.54
  YSB1174YSB1171       CONDUIT     18.17     0  02:08      0.07    0.03    0.66
  YSB1171HS02004479    CONDUIT     37.18     0  02:14      0.54    0.02    0.51
  HS02004881HS02006253 CONDUIT     61.97     0  02:15      1.98    0.01    0.26
  YS02001793JiankangQianchi CONDUIT   1099.40     0  02:47     13.02    0.09    1.00
  YS02001757CaochengTiaoxuchi CONDUIT    987.58     0  02:30      2.18    0.43    1.00
  WSF200WS02003060     CONDUIT    564.85     0  02:37      1.90    0.13    0.32
  1                    CONDUIT    754.86     0  02:46      3.08    0.26    0.35
  2                    CONDUIT    161.03     0  02:31      5.52    0.39    0.43
  3                    CONDUIT    250.55     0  00:00      8.27    0.40    0.46
  4                    CONDUIT      0.00     0  00:00      0.00    0.00    0.00
  CC-Pump-1            PUMP       200.00     0  02:30              1.00
  CC-Pump-2            PUMP       200.00     0  03:20              1.00
  JK-Pump-1            PUMP         0.00     0  00:00              0.00
  JK-Pump-2            PUMP       300.00     0  00:00              1.00
  XR-Pump-1            PUMP        95.00     0  00:00              1.00
  XR-Pump-2            PUMP        95.00     0  00:20              1.00
  XR-Pump-3            PUMP         0.00     0  00:00              0.00
  XR-Pump-4            PUMP        95.00     0  00:00              1.00
  
  
  ***************************
  Flow Classification Summary
  ***************************
  
  -------------------------------------------------------------------------------------
                      Adjusted    ---------- Fraction of Time in Flow Class ---------- 
                       /Actual         Up    Down  Sub   Sup   Up    Down  Norm  Inlet 
  Conduit               Length    Dry  Dry   Dry   Crit  Crit  Crit  Crit  Ltd   Ctrl  
  -------------------------------------------------------------------------------------
  WS02003066WSF200        1.00   0.06  0.00  0.00  0.00  0.94  0.00  0.00  0.65  0.00
  WS02006287WS02006284    1.00   0.04  0.01  0.00  0.66  0.28  0.00  0.00  0.76  0.00
  WS02006284WS02006280    1.00   0.05  0.00  0.00  0.00  0.00  0.00  0.95  0.00  0.00
  WS02006280WS02006229    1.00   0.05  0.00  0.00  0.00  0.00  0.00  0.95  0.00  0.00
  WS02006229WS02006228    1.00   0.00  0.00  0.00  0.99  0.00  0.00  0.01  0.00  0.00
  WS02006256WS02006235    1.00   0.00  0.00  0.00  1.00  0.00  0.00  0.00  0.00  0.00
  WS02006253WS02006251    1.00   0.03  0.01  0.00  0.96  0.00  0.00  0.00  0.00  0.00
  WS02006252WS02006251    1.00   0.08  0.00  0.00  0.00  0.00  0.92  0.00  0.00  0.00
  WS02006251WS02006249    1.00   0.00  0.00  0.00  1.00  0.00  0.00  0.00  0.25  0.00
  WS02006249WS02006248    1.00   0.00  0.02  0.00  0.91  0.00  0.06  0.00  0.00  0.00
  WS02006248WS02006247    1.00   0.02  0.00  0.00  0.97  0.00  0.00  0.00  0.14  0.00
  WS02006247WS02006245    1.00   0.02  0.00  0.00  0.98  0.00  0.00  0.00  0.00  0.00
  WS02006245WS02006243    1.00   0.01  0.00  0.00  0.94  0.00  0.00  0.04  0.01  0.00
  WS02006243WS02006242    1.00   0.01  0.00  0.00  0.99  0.00  0.00  0.00  0.26  0.00
  WS02006242WS02006240    1.00   0.00  0.00  0.00  1.00  0.00  0.00  0.00  0.00  0.00
  WS02006240WS02006239    1.00   0.00  0.00  0.00  0.95  0.00  0.00  0.04  0.01  0.00
  WS02006239WS02006238    1.00   0.00  0.00  0.00  1.00  0.00  0.00  0.00  0.01  0.00
  WS02006238WS02006235    1.00   0.00  0.00  0.00  1.00  0.00  0.00  0.00  0.00  0.00
  WS02006235WS02006234    1.00   0.00  0.00  0.00  0.95  0.00  0.05  0.00  0.00  0.00
  WS02006234WS02006232    1.00   0.00  0.00  0.00  1.00  0.00  0.00  0.00  0.15  0.00
  WS02006232WS02006231    1.00   0.00  0.00  0.00  0.99  0.00  0.00  0.00  0.00  0.00
  WS02006231WS02006230    1.00   0.00  0.00  0.00  0.68  0.00  0.32  0.00  0.00  0.00
  WS02006230WS02006229    1.00   0.00  0.00  0.00  0.98  0.00  0.00  0.02  0.01  0.00
  WS02006228WS02006109    1.00   0.00  0.00  0.00  1.00  0.00  0.00  0.00  0.00  0.00
  WS02006116WS02004401    1.00   0.03  0.00  0.00  0.97  0.00  0.00  0.00  0.00  0.00
  WS02006115WS02006116    1.00   0.03  0.00  0.00  0.97  0.00  0.00  0.01  0.00  0.00
  WS02006113WS02006111    1.00   0.02  0.00  0.00  0.00  0.98  0.00  0.00  0.11  0.00
  WS02006112WS02006115    1.00   0.02  0.00  0.00  0.97  0.00  0.00  0.00  0.00  0.00
  WS02006111WS02006112    1.00   0.02  0.00  0.00  0.97  0.00  0.00  0.00  0.98  0.00
  WS02006110WS02006113    1.00   0.01  0.01  0.00  0.98  0.00  0.00  0.00  0.00  0.00
  WS02006109WS02006110    1.00   0.00  0.01  0.00  0.98  0.00  0.01  0.00  0.00  0.00
  WS02004411WS02004412    1.00   0.04  0.00  0.00  0.96  0.00  0.00  0.00  0.00  0.00
  WS02004401WS02004402    1.00   0.03  0.00  0.00  0.97  0.00  0.00  0.00  0.00  0.00
  WS02004413WS02003067    1.00   0.04  0.01  0.00  0.00  0.00  0.94  0.00  0.00  0.00
  WS02004412WS02004413    1.00   0.04  0.00  0.00  0.96  0.00  0.00  0.00  0.03  0.00
  WS02004410WS02004411    1.00   0.04  0.00  0.00  0.96  0.00  0.00  0.00  0.04  0.00
  WS02004409WS02004410    1.00   0.04  0.00  0.00  0.96  0.00  0.00  0.00  0.04  0.00
  WS02004407WS02004409    1.00   0.04  0.00  0.00  0.96  0.00  0.00  0.00  0.89  0.00
  WS02004406WS02004407    1.00   0.00  0.04  0.00  0.96  0.00  0.00  0.00  0.00  0.00
  WS02004405WS02004406    1.00   0.00  0.00  0.00  1.00  0.00  0.00  0.00  0.01  0.00
  WS02004404WS02004405    1.00   0.00  0.00  0.00  1.00  0.00  0.00  0.00  0.00  0.00
  WS02004403WS02004404    1.00   0.00  0.03  0.00  0.97  0.00  0.00  0.00  0.01  0.00
  WS02004402WS02004403    1.00   0.03  0.00  0.00  0.97  0.00  0.00  0.00  0.00  0.00
  WS02004139WS02001211    1.00   0.00  0.00  0.00  1.00  0.00  0.00  0.00  0.00  0.00
  WS02004138WS02004139    1.00   0.00  0.00  0.00  0.99  0.01  0.00  0.00  1.00  0.00
  WS02003067WS02003066    1.00   0.06  0.00  0.00  0.94  0.00  0.00  0.00  0.00  0.00
  WS02001213WS02003059    1.00   0.00  0.00  0.00  0.99  0.00  0.00  0.00  0.00  0.00
  WS02001212WS02001213    1.00   0.00  0.00  0.00  0.89  0.00  0.11  0.00  0.00  0.00
  WS02001211WS02001212    1.00   0.00  0.00  0.00  1.00  0.00  0.00  0.00  0.00  0.00
  WS02003072WS02003073    1.00   0.00  0.00  0.00  0.00  0.00  0.00  1.00  0.00  0.00
  WS02003069WS02003072    1.00   0.00  0.00  0.00  0.99  0.01  0.00  0.00  0.26  0.00
  WS02003060WS02003069    1.00   0.00  0.00  0.00  0.99  0.01  0.00  0.00  0.15  0.00
  WS02003059WS02003060    1.00   0.00  0.00  0.00  1.00  0.00  0.00  0.00  0.01  0.00
  HS02004901HS02004770    1.00   0.04  0.00  0.00  0.95  0.00  0.00  0.00  0.02  0.00
  HS02004876HS02004881    1.00   0.02  0.00  0.00  0.98  0.00  0.00  0.00  0.00  0.00
  HS02004870HS02004876    1.00   0.01  0.00  0.00  0.99  0.00  0.00  0.00  0.95  0.00
  HS02004842HS02004848    1.00   0.00  0.05  0.00  0.95  0.00  0.00  0.00  0.67  0.00
  HS02004837HS02004842    1.00   0.00  0.00  0.00  0.99  0.01  0.00  0.00  0.11  0.00
  HS02004830HS02004837    1.00   0.00  0.00  0.00  1.00  0.00  0.00  0.00  0.99  0.00
  HS02004824HS02004830    1.00   0.00  0.00  0.00  1.00  0.00  0.00  0.00  0.00  0.00
  HS02004817HS02004824    1.00   0.00  0.00  0.00  1.00  0.00  0.00  0.00  1.00  0.00
  HS02004770HS02004777    1.00   0.00  0.05  0.00  0.95  0.00  0.00  0.00  0.07  0.00
  HS02004799HS02004480    1.00   0.00  0.03  0.00  0.94  0.00  0.03  0.00  0.00  0.00
  HS02004792HS02004799    1.00   0.00  0.00  0.00  0.99  0.01  0.00  0.00  0.98  0.00
  HS02004788HS02004792    1.00   0.00  0.00  0.00  0.99  0.01  0.00  0.00  0.98  0.00
  HS02004785HS02004788    1.00   0.00  0.00  0.00  1.00  0.00  0.00  0.00  0.00  0.00
  HS02004777HS02004785    1.00   0.00  0.00  0.00  1.00  0.00  0.00  0.00  0.20  0.00
  HS02004480HS02004478    1.00   0.05  0.00  0.00  0.71  0.00  0.00  0.24  0.00  0.00
  HS02004479HS02004480    1.00   0.03  0.00  0.00  0.97  0.00  0.00  0.00  0.15  0.00
  HS02004862HS02004870    1.00   0.00  0.00  0.00  1.00  0.00  0.00  0.00  0.06  0.00
  HS02004848HS02004852    1.00   0.05  0.00  0.00  0.95  0.00  0.00  0.00  0.71  0.00
  HS02004856HS02004862    1.00   0.00  0.07  0.00  0.93  0.00  0.00  0.00  0.75  0.00
  HS02004852HS02004856    1.00   0.05  0.01  0.00  0.95  0.00  0.00  0.00  0.83  0.00
  HS02004802HS02004478    1.00   0.05  0.00  0.00  0.95  0.00  0.00  0.00  0.01  0.00
  HS02004478WS02006287    1.00   0.06  0.00  0.00  0.82  0.12  0.00  0.00  0.73  0.00
  HS02004817HS02004807    1.00   0.00  0.05  0.00  0.95  0.00  0.00  0.00  0.00  0.00
  HS02004807HS02004802    1.00   0.05  0.00  0.00  0.95  0.00  0.00  0.00  0.01  0.00
  YS02001759YS02001757    1.00   0.00  0.00  0.00  1.00  0.00  0.00  0.00  0.17  0.00
  YS02001762YS02001759    1.00   0.00  0.00  0.00  1.00  0.00  0.00  0.00  0.04  0.00
  YS02001765YS02001762    1.00   0.00  0.00  0.00  1.00  0.00  0.00  0.00  0.21  0.00
  YS02001770YS02001767    1.00   0.00  0.00  0.00  1.00  0.00  0.00  0.00  0.00  0.00
  YS02001774YS02001770    1.00   0.00  0.05  0.00  0.95  0.00  0.00  0.00  0.06  0.00
  YS02001779YS02001774    1.00   0.00  0.00  0.00  1.00  0.00  0.00  0.00  0.26  0.00
  YS02001649YS02001757    1.00   0.00  0.00  0.00  1.00  0.00  0.00  0.00  0.19  0.00
  YS02001767YS02001765    1.00   0.00  0.00  0.00  1.00  0.00  0.00  0.00  0.01  0.00
  YS02006561YS02001783    1.00   0.07  0.00  0.00  0.21  0.73  0.00  0.00  0.66  0.00
  YS02001783YS02001784    1.00   0.00  0.07  0.00  0.93  0.00  0.00  0.00  0.00  0.00
  YS02001784YS02001785    1.00   0.00  0.00  0.00  1.00  0.00  0.00  0.00  0.24  0.00
  YS02001788YS02001790    1.00   0.00  0.00  0.00  0.33  0.67  0.00  0.00  0.69  0.00
  YS02001790YS02001791    1.00   0.00  0.00  0.00  0.30  0.70  0.00  0.00  0.45  0.00
  YS02001791YS02001793    1.00   0.00  0.00  0.00  0.31  0.69  0.00  0.00  0.02  0.00
  YS02001910YS02001907    1.00   0.00  0.00  0.00  0.97  0.00  0.00  0.03  0.13  0.00
  YS02001786YS02001788    1.00   0.00  0.00  0.00  0.31  0.69  0.00  0.00  0.00  0.00
  YS02001915YS02001910    1.00   0.00  0.00  0.00  0.99  0.01  0.00  0.00  0.23  0.00
  YS02001918YS02001915    1.00   0.00  0.01  0.00  0.98  0.01  0.00  0.00  0.67  0.00
  YS02001923YS02001920    1.00   0.00  0.00  0.00  1.00  0.00  0.00  0.00  1.00  0.00
  YS02001926YS02001923    1.00   0.00  0.03  0.00  0.00  0.00  0.96  0.00  0.00  0.00
  YS02001929YS02001926    1.00   0.00  0.05  0.00  0.95  0.00  0.00  0.00  0.87  0.00
  YS02001920YS02001918    1.00   0.00  0.01  0.00  0.99  0.00  0.00  0.00  0.00  0.00
  YS02001629YS02163301    1.00   0.06  0.00  0.00  0.94  0.00  0.00  0.00  0.00  0.00
  YS02001619YS02001622    1.00   0.04  0.00  0.00  0.96  0.00  0.00  0.00  0.00  0.00
  YS02001622YS02001625    1.00   0.05  0.00  0.00  0.95  0.00  0.00  0.00  0.12  0.00
  YS02001625YS02001629    1.00   0.05  0.02  0.00  0.92  0.00  0.01  0.00  0.00  0.00
  YS02163301YS02001633    1.00   0.00  0.06  0.00  0.94  0.00  0.00  0.00  0.00  0.00
  YS02163601YS02164001    1.00   0.00  0.04  0.00  0.96  0.00  0.00  0.00  0.00  0.00
  YS02164001YS02001641    1.00   0.01  0.03  0.00  0.96  0.00  0.00  0.00  0.07  0.00
  YS02001641YS02001644    1.00   0.00  0.01  0.00  0.99  0.00  0.00  0.00  0.00  0.00
  YS02001647YS02001649    1.00   0.00  0.07  0.00  0.93  0.00  0.00  0.00  0.01  0.00
  YS02006553YS02006556    1.00   0.01  0.00  0.00  0.99  0.00  0.00  0.00  0.03  0.00
  YS02006556YS02006558    1.00   0.00  0.00  0.00  1.00  0.00  0.00  0.00  0.00  0.00
  YSB6556YSB1171          1.00   0.03  0.02  0.00  0.96  0.00  0.00  0.00  0.00  0.00
  YS02001907YS02006553    1.00   0.00  0.02  0.00  0.97  0.00  0.00  0.00  0.00  0.00
  YS02006558YS02006561    1.00   0.07  0.00  0.00  0.00  0.93  0.00  0.00  0.59  0.00
  YS02001633YS02163601    1.00   0.00  0.01  0.00  0.99  0.00  0.00  0.00  0.19  0.00
  YS02001644YS02001647    1.00   0.00  0.07  0.00  0.93  0.00  0.00  0.00  0.00  0.00
  YS02001745YS02001748    1.00   0.00  0.00  0.00  0.89  0.01  0.00  0.10  0.07  0.00
  YS02001748YS02001751    1.00   0.00  0.00  0.00  0.98  0.02  0.00  0.00  0.22  0.00
  YS02001751YS02001754    1.00   0.00  0.00  0.00  0.93  0.00  0.00  0.07  0.01  0.00
  YS02001754YS02001757    1.00   0.00  0.00  0.00  0.99  0.01  0.00  0.00  0.25  0.00
  YS02001882YS02001884    1.00   0.06  0.00  0.00  0.94  0.00  0.00  0.00  0.00  0.00
  YS02001884YS02001887    1.00   0.03  0.01  0.00  0.96  0.00  0.00  0.00  0.00  0.00
  YS02001890YS02001895    1.00   0.00  0.06  0.00  0.94  0.00  0.00  0.00  0.00  0.00
  YS02001895YS02001898    1.00   0.06  0.00  0.00  0.93  0.00  0.01  0.00  0.00  0.00
  YS02001898YS02001901    1.00   0.06  0.00  0.00  0.94  0.00  0.00  0.00  0.02  0.00
  YS02001901YS02001904    1.00   0.06  0.00  0.00  0.94  0.00  0.00  0.00  0.00  0.00
  YS02001904YS02001907    1.00   0.00  0.06  0.00  0.94  0.00  0.00  0.00  0.00  0.00
  YS02001887YS02001890    1.00   0.00  0.00  0.00  0.97  0.00  0.02  0.00  0.00  0.00
  YS02001652YS02001649    1.00   0.00  0.00  0.00  1.00  0.00  0.00  0.00  0.25  0.00
  YS02001655YS02001652    1.00   0.00  0.00  0.00  0.93  0.00  0.00  0.07  0.01  0.00
  YS02001658YS02001655    1.00   0.00  0.05  0.00  0.92  0.02  0.00  0.00  0.08  0.00
  YS02001661YS02001658    1.00   0.05  0.00  0.00  0.89  0.05  0.00  0.00  0.07  0.00
  YS02001664YS02001661    1.00   0.04  0.00  0.00  0.83  0.12  0.00  0.00  0.34  0.00
  YSB1154YSB6556          1.00   0.04  0.00  0.00  0.96  0.00  0.00  0.00  0.02  0.00
  YSB1174YSB1171          1.00   0.03  0.01  0.00  0.96  0.00  0.00  0.00  0.00  0.00
  YSB1171HS02004479       1.00   0.03  0.00  0.00  0.97  0.00  0.00  0.00  0.13  0.00
  HS02004881HS02006253    1.00   0.03  0.00  0.00  0.76  0.02  0.00  0.18  0.59  0.00
  YS02001793JiankangQianchi    1.00   0.00  0.00  0.00  0.51  0.49  0.00  0.00  0.14  0.00
  YS02001757CaochengTiaoxuchi    1.00   0.00  0.08  0.00  0.92  0.01  0.00  0.00  0.00  0.00
  WSF200WS02003060        1.00   0.00  0.06  0.00  0.62  0.32  0.00  0.00  0.15  0.00
  1                       1.00   0.00  0.00  0.00  0.00  1.00  0.00  0.00  0.23  0.00
  2                       1.00   0.61  0.00  0.00  0.00  0.39  0.00  0.00  0.09  0.00
  3                       1.00   0.15  0.00  0.00  0.00  0.85  0.00  0.00  0.26  0.00
  4                       1.00   1.00  0.00  0.00  0.00  0.00  0.00  0.00  0.00  0.00
  
  
  *************************
  Conduit Surcharge Summary
  *************************
  
  ----------------------------------------------------------------------------
                                                           Hours        Hours 
                         --------- Hours Full --------   Above Full   Capacity
  Conduit                Both Ends  Upstream  Dnstream   Normal Flow   Limited
  ----------------------------------------------------------------------------
  WS02006229WS02006228        1.59      2.21      1.59      4.64         1.59
  WS02006256WS02006235        5.78      5.78      6.38      2.52         0.01
  WS02006252WS02006251        1.38      1.38      2.37      2.11         0.01
  WS02006251WS02006249        0.01      0.01      0.01      1.42         0.01
  WS02006249WS02006248        0.01      0.01      0.01      4.23         0.01
  WS02006247WS02006245        0.01      0.01      0.01      4.72         0.01
  WS02006245WS02006243        0.01      0.01      0.03      0.01         0.01
  WS02006243WS02006242        0.06      0.06      1.26      0.01         0.01
  WS02006242WS02006240        0.21      0.21      1.78      2.37         0.01
  WS02006240WS02006239        0.27      0.27      0.33      0.01         0.01
  WS02006239WS02006238        1.62      1.62      1.81      0.43         0.41
  WS02006238WS02006235        1.55      1.55      2.13      0.01         0.01
  WS02006235WS02006234        0.26      0.26      1.01      5.80         0.01
  WS02006234WS02006232        0.43      0.43      2.35      0.01         0.01
  WS02006232WS02006231        0.07      0.07      2.35      0.01         0.01
  WS02006231WS02006230        0.01      0.01      0.10      5.79         0.01
  WS02006230WS02006229        3.41      4.22      3.41      5.87         3.40
  WS02006228WS02006109        2.03      2.71      2.03      5.34         2.03
  WS02006112WS02006115        0.01      0.01      0.65      0.01         0.01
  WS02006111WS02006112        0.01      0.01      4.76      0.01         0.01
  WS02006110WS02006113        0.01      0.01      2.44      0.01         0.01
  WS02006109WS02006110        0.32      0.32      2.71      0.33         0.01
  WS02004405WS02004406        0.01      0.01      0.01      0.47         0.01
  WS02004404WS02004405        0.01      0.01      0.01      5.69         0.01
  WS02003072WS02003073        0.01      0.01      0.01      5.38         0.01
  HS02004480HS02004478        0.01      0.01      0.01      0.04         0.01
  YS02001759YS02001757        5.47      5.47      5.52      0.01         0.01
  YS02001762YS02001759        5.46      5.46      5.47      0.01         0.02
  YS02001765YS02001762        5.42      5.42      5.46      0.01         0.01
  YS02001770YS02001767        5.37      5.38      5.39      0.01         0.77
  YS02001774YS02001770        5.32      5.32      5.45      0.01         0.01
  YS02001779YS02001774        4.82      4.82      5.45      0.01         0.01
  YS02001649YS02001757        5.46      5.46      5.52      0.01         0.01
  YS02001767YS02001765        5.39      5.39      5.42      0.01         0.02
  YS02001784YS02001785        0.01      0.01      0.01      0.87         0.01
  YS02001788YS02001790        0.01      0.01      1.24      0.01         0.01
  YS02001790YS02001791        1.24      1.24      1.38      0.01         0.01
  YS02001791YS02001793        1.38      1.38      1.68      0.01         0.01
  YS02001786YS02001788        0.01      0.01      0.01      0.01         0.01
  YS02001629YS02163301        5.33      5.33      5.36      0.01         0.01
  YS02001619YS02001622        4.22      4.23      4.33      0.01         0.01
  YS02001622YS02001625        4.33      4.33      5.22      0.01         0.01
  YS02001625YS02001629        4.25      4.25      5.22      0.01         0.01
  YS02163301YS02001633        5.36      5.36      5.43      0.01         0.01
  YS02163601YS02164001        5.43      5.43      5.46      0.01         0.01
  YS02164001YS02001641        5.43      5.43      5.44      0.01         0.01
  YS02001641YS02001644        5.43      5.44      5.44      0.01         1.14
  YS02001647YS02001649        5.20      5.20      5.46      0.01         0.01
  YS02006556YS02006558        0.01      0.01      0.01      0.01         0.01
  YS02001907YS02006553        0.89      0.89      1.10      0.01         0.01
  YS02006558YS02006561        0.01      0.01      0.01      0.68         0.01
  YS02001633YS02163601        5.42      5.42      5.46      0.01         0.01
  YS02001644YS02001647        5.20      5.20      5.44      0.01         0.01
  YS02001745YS02001748        0.01      0.01      3.07      0.01         0.01
  YS02001748YS02001751        3.61      3.61      4.35      0.01         0.01
  YS02001751YS02001754        4.35      4.35      5.01      0.01         0.01
  YS02001754YS02001757        5.20      5.20      5.52      0.01         0.01
  YS02001652YS02001649        5.21      5.21      5.46      0.01         0.01
  YS02001655YS02001652        4.43      4.43      5.17      0.01         0.01
  YS02001658YS02001655        2.98      2.98      4.43      0.01         0.01
  YS02001661YS02001658        0.01      0.01      2.98      0.01         0.01
  YS02001793JiankangQianchi        1.61      1.61      2.70      0.01         0.01
  YS02001757CaochengTiaoxuchi        4.03      4.03      5.52      0.01         0.01
  
  
  ***************
  Pumping Summary
  ***************
  
  ---------------------------------------------------------------------------------------------------------
                                                  Min       Avg       Max     Total     Power    % Time Off
                        Percent   Number of      Flow      Flow      Flow    Volume     Usage    Pump Curve
  Pump                 Utilized   Start-Ups       LPS       LPS       LPS  10^6 ltr     Kw-hr    Low   High
  ---------------------------------------------------------------------------------------------------------
  CC-Pump-1               61.44           5      0.00    143.53    200.00     2.432      4.71    0.0   12.0
  CC-Pump-2               61.44           6      0.00    137.39    200.00     2.372      4.48    0.0   10.0
  JK-Pump-1                0.00           0      0.00      0.00      0.00     0.000      0.00    0.0    0.0
  JK-Pump-2              100.00           1      0.00    205.59    300.00     4.404     49.33    0.0    0.0
  XR-Pump-1               99.99           4      0.00     78.83     95.00     2.280     16.24    0.0    0.0
  XR-Pump-2               95.73           3      0.00     81.52     95.00     2.137     14.32    0.0    0.0
  XR-Pump-3                0.00           0      0.00      0.00      0.00     0.000      0.00    0.0    0.0
  XR-Pump-4               87.22           7      0.00     71.92     95.00     1.710     12.53    0.0    0.0
  

  Analysis begun on:  Wed Jan  5 22:21:46 2022
  Analysis ended on:  Wed Jan  5 22:21:50 2022
  Total elapsed time: 00:00:04