
  EPA STORM WATER MANAGEMENT MODEL - VERSION 5.1 (Build 5.3.0.dev0)
  --------------------------------------------------------------

  WARNING 04: minimum elevation drop used for Conduit WS02004404WS02004405
  WARNING 03: negative offset ignored for Link YS02001904YS02001907
  
  *********************************************************
  NOTE: The summary statistics displayed in this report are
  based on results found at every computational time step,  
  not just on results from each reporting time step.
  *********************************************************
  
  ****************
  Analysis Options
  ****************
  Flow Units ............... LPS
  Process Models:
    Rainfall/Runoff ........ YES
    RDII ................... NO
    Snowmelt ............... NO
    Groundwater ............ NO
    Flow Routing ........... YES
    Ponding Allowed ........ NO
    Water Quality .......... NO
  Infiltration Method ...... HORTON
  Flow Routing Method ...... DYNWAVE
  Surcharge Method ......... EXTRAN
  Starting Date ............ 08/28/2015 08:00:00
  Ending Date .............. 08/28/2015 15:50:00
  Antecedent Dry Days ...... 8.0
  Report Time Step ......... 00:01:00
  Wet Time Step ............ 00:01:00
  Dry Time Step ............ 00:01:00
  Routing Time Step ........ 5.00 sec
  Variable Time Step ....... YES
  Maximum Trials ........... 8
  Number of Threads ........ 4
  Head Tolerance ........... 0.001500 m
  
  
  **************************        Volume         Depth
  Runoff Quantity Continuity     hectare-m            mm
  **************************     ---------       -------
  Total Precipitation ......         3.868         8.469
  Evaporation Loss .........         0.000         0.000
  Infiltration Loss ........         0.985         2.157
  Surface Runoff ...........         1.916         4.194
  Final Storage ............         0.968         2.119
  Continuity Error (%) .....        -0.017
  
  
  **************************        Volume        Volume
  Flow Routing Continuity        hectare-m      10^6 ltr
  **************************     ---------     ---------
  Dry Weather Inflow .......         0.616         6.165
  Wet Weather Inflow .......         1.915        19.149
  Groundwater Inflow .......         0.000         0.000
  RDII Inflow ..............         0.000         0.000
  External Inflow ..........         0.102         1.024
  External Outflow .........         0.984         9.840
  Flooding Loss ............         1.094        10.942
  Evaporation Loss .........         0.000         0.000
  Exfiltration Loss ........         0.000         0.000
  Initial Stored Volume ....         0.076         0.761
  Final Stored Volume ......         0.642         6.424
  Continuity Error (%) .....        -0.397
  
  
  *************************
  Highest Continuity Errors
  *************************
  Node HS02004842 (20.89%)
  Node YS02001774 (15.17%)
  Node YS02001884 (14.46%)
  Node YSB1171 (4.66%)
  Node HS02004817 (3.83%)
  
  
  ***************************
  Time-Step Critical Elements
  ***************************
  Link WS02006252WS02006251 (48.21%)
  Link 3 (37.18%)
  Link YS02006556YS02006558 (3.54%)
  Link WS02006280WS02006229 (3.33%)
  Link WS02006238WS02006235 (2.19%)
  
  
  ********************************
  Highest Flow Instability Indexes
  ********************************
  Link WS02006113WS02006111 (40)
  Link YS02006558YS02006561 (17)
  Link WS02006111WS02006112 (15)
  Link YS02001791YS02001793 (14)
  Link YS02001629YS02163301 (13)
  
  
  *************************
  Routing Time Step Summary
  *************************
  Minimum Time Step           :     0.50 sec
  Average Time Step           :     1.16 sec
  Maximum Time Step           :     5.00 sec
  Percent in Steady State     :    -0.00
  Average Iterations per Step :     3.32
  Percent Not Converging      :    13.85
  
  
  ***************************
  Subcatchment Runoff Summary
  ***************************
  
  ------------------------------------------------------------------------------------------------------------------------------
                            Total      Total      Total      Total     Imperv       Perv      Total       Total     Peak  Runoff
                           Precip      Runon       Evap      Infil     Runoff     Runoff     Runoff      Runoff   Runoff   Coeff
  Subcatchment                 mm         mm         mm         mm         mm         mm         mm    10^6 ltr      LPS
  ------------------------------------------------------------------------------------------------------------------------------
  sub0                       8.47       0.00       0.00       0.59       6.61       0.00       6.61        0.01     1.03   0.781
  sub1                       8.47       0.00       0.00       0.93       6.28       0.00       6.28        0.04     7.43   0.741
  sub2                       8.47       0.00       0.00       3.13       4.43       0.00       4.43        0.04     7.08   0.523
  sub3                       8.47       0.00       0.00       3.13       4.39       0.00       4.39        0.10    15.91   0.518
  sub4                       8.47       0.00       0.00       0.93       6.13       0.00       6.13        0.13    19.23   0.724
  sub5                       8.47       0.00       0.00       0.59       6.56       0.00       6.56        0.07    13.22   0.775
  sub7                       8.47       0.00       0.00       0.76       6.45       0.00       6.45        0.02     4.04   0.762
  sub8                       8.47       0.00       0.00       0.76       6.44       0.00       6.44        0.04     7.54   0.761
  sub9                       8.47       0.00       0.00       0.76       6.44       0.00       6.44        0.03     5.65   0.760
  sub10                      8.47       0.00       0.00       0.68       6.50       0.00       6.50        0.07    12.87   0.767
  sub11                      8.47       0.00       0.00       0.68       6.52       0.00       6.52        0.08    13.93   0.769
  sub12                      8.47       0.00       0.00       1.10       6.18       0.00       6.18        0.05    10.23   0.730
  sub14                      8.47       0.00       0.00       0.76       6.44       0.00       6.44        0.06    11.15   0.760
  sub15                      8.47       0.00       0.00       2.54       4.95       0.00       4.95        0.09    15.40   0.584
  sub16                      8.47       0.00       0.00       2.79       4.76       0.00       4.76        0.05     9.37   0.561
  sub17                      8.47       0.00       0.00       2.71       4.82       0.00       4.82        0.04     7.75   0.570
  sub22                      8.47       0.00       0.00       3.64       4.04       0.00       4.04        0.26    47.08   0.477
  sub23                      8.47       0.00       0.00       3.13       4.46       0.00       4.46        0.21    39.46   0.527
  sub60                      8.47       0.00       0.00       1.02       4.75       0.00       4.75        1.44   149.28   0.561
  sub61                      8.47       0.00       0.00       1.44       4.95       0.00       4.95        1.53   180.35   0.585
  sub62                      8.47       0.00       0.00       0.68       5.35       0.00       5.35        1.64   187.08   0.631
  sub63                      8.47       0.00       0.00       2.46       4.37       0.00       4.37        1.32   164.01   0.516
  sub64                      8.47       0.00       0.00       1.27       4.55       0.00       4.55        1.38   141.99   0.537
  sub65                      8.47       0.00       0.00       1.10       4.62       0.00       4.62        1.42   144.28   0.545
  sub66                      8.47       0.00       0.00       2.46       3.94       0.00       3.94        1.21   129.20   0.465
  sub67                      8.47       0.00       0.00       0.68       5.75       0.00       5.75        1.78   226.25   0.679
  sub68                      8.47       0.00       0.00       1.19       5.24       0.00       5.24        1.61   196.27   0.618
  sub69                      8.47       0.00       0.00       1.27       5.53       0.00       5.53        1.29   176.57   0.653
  sub70                      8.47       5.64       0.00       4.80       7.11       0.00       7.11        1.63   167.69   0.504
  sub71                      8.47       0.00       0.00       0.68       5.16       0.00       5.16        1.22   132.38   0.610
  sub72                      8.47       0.00       0.00       0.59       3.87       0.00       3.87        0.79    64.98   0.457
  sub73                      8.47       6.92       0.00       5.23       7.51       0.00       7.51        1.76   149.38   0.488
  sub74                      8.47       0.00       0.00       6.35       1.66       0.00       1.66        0.66    93.55   0.196
  
  
  ******************
  Node Depth Summary
  ******************
  
  ---------------------------------------------------------------------------------
                                 Average  Maximum  Maximum  Time of Max    Reported
                                   Depth    Depth      HGL   Occurrence   Max Depth
  Node                 Type       Meters   Meters   Meters  days hr:min      Meters
  ---------------------------------------------------------------------------------
  WS02001211           JUNCTION     0.53     0.71     5.55     0  03:19        0.71
  WS02001212           JUNCTION     0.27     0.43     5.49     0  03:18        0.43
  WS02001213           JUNCTION     0.49     0.67     5.44     0  03:17        0.67
  WS02003069           JUNCTION     0.32     0.50     5.09     0  03:16        0.50
  WS02003072           JUNCTION     0.39     0.57     4.94     0  03:16        0.57
  WS02003073           JUNCTION     0.22     0.34     4.41     0  03:17        0.34
  WS02003060           JUNCTION     0.29     0.44     5.38     0  03:15        0.44
  WS02003066           JUNCTION     0.19     0.28     5.83     0  02:35        0.28
  WS02003059           JUNCTION     0.55     0.73     5.42     0  03:16        0.73
  WS02003067           JUNCTION     0.49     0.67     5.99     0  02:35        0.67
  WS02004401           JUNCTION     0.57     0.80     6.80     0  02:31        0.80
  WS02004402           JUNCTION     0.60     0.82     6.78     0  02:31        0.82
  WS02004403           JUNCTION     0.62     0.84     6.77     0  02:31        0.84
  WS02004404           JUNCTION     0.70     0.92     6.77     0  02:31        0.92
  WS02004406           JUNCTION     0.71     0.92     6.75     0  02:31        0.92
  WS02004409           JUNCTION     0.38     0.61     6.38     0  02:34        0.61
  WS02004410           JUNCTION     0.40     0.63     6.35     0  02:34        0.63
  WS02004411           JUNCTION     0.42     0.64     6.32     0  02:34        0.64
  WS02004412           JUNCTION     0.44     0.65     6.29     0  02:34        0.65
  WS02004413           JUNCTION     0.60     0.82     6.29     0  02:34        0.82
  WS02004405           JUNCTION     0.70     0.91     6.76     0  02:31        0.91
  WS02006109           JUNCTION     0.64     0.89     7.51     0  02:28        0.89
  WS02006110           JUNCTION     0.64     0.87     7.45     0  02:28        0.87
  WS02006111           JUNCTION     0.18     0.27     6.97     0  02:29        0.27
  WS02006112           JUNCTION     0.72     0.98     6.86     0  02:30        0.98
  WS02006113           JUNCTION     0.27     0.42     7.31     0  02:28        0.42
  WS02006115           JUNCTION     0.45     0.69     6.83     0  02:31        0.69
  WS02006116           JUNCTION     0.54     0.77     6.81     0  02:31        0.77
  WS02006230           JUNCTION     0.56     0.89     7.63     0  02:27        0.89
  WS02006231           JUNCTION     0.35     0.55     7.67     0  02:27        0.55
  WS02006232           JUNCTION     0.48     0.67     7.71     0  03:05        0.67
  WS02006234           JUNCTION     0.38     0.58     7.74     0  03:05        0.58
  WS02006235           JUNCTION     0.40     0.60     7.77     0  03:05        0.60
  WS02006238           JUNCTION     0.43     0.63     7.77     0  03:05        0.63
  WS02006240           JUNCTION     0.31     0.51     7.80     0  05:56        0.51
  WS02006242           JUNCTION     0.36     0.56     7.83     0  05:56        0.56
  WS02006243           JUNCTION     0.24     0.43     7.85     0  05:57        0.43
  WS02006245           JUNCTION     0.23     0.42     7.91     0  03:00        0.42
  WS02006247           JUNCTION     0.25     0.45     7.95     0  03:00        0.45
  WS02006248           JUNCTION     0.21     0.40     7.99     0  03:00        0.40
  WS02006249           JUNCTION     0.25     0.44     8.04     0  03:00        0.44
  WS02006239           JUNCTION     0.37     0.57     7.78     0  03:04        0.57
  WS02006251           JUNCTION     0.23     0.43     8.10     0  03:00        0.43
  WS02006252           JUNCTION     0.20     0.35     8.59     0  02:50        0.35
  WS02006253           JUNCTION     0.26     0.46     8.10     0  03:00        0.46
  WS02006256           JUNCTION     0.87     1.20     8.13     0  05:50        1.20
  WS02004138           JUNCTION     0.10     0.17     7.42     0  03:15        0.17
  WS02004407           JUNCTION     0.17     0.28     6.59     0  02:32        0.28
  WS02006228           JUNCTION     0.62     0.92     7.57     0  02:27        0.92
  WS02006229           JUNCTION     0.59     0.90     7.60     0  02:27        0.90
  WS02006280           JUNCTION     0.06     0.14     8.41     0  02:27        0.14
  WS02006284           JUNCTION     0.36     0.48     8.88     0  02:27        0.48
  WS02006287           JUNCTION     0.09     0.21     9.16     0  02:27        0.21
  WSF200               JUNCTION     0.17     0.28     5.51     0  03:12        0.28
  HS02004901           JUNCTION     0.12     0.22    10.04     0  02:25        0.22
  HS02004881           JUNCTION     0.01     0.02     9.05     0  02:26        0.02
  HS02004876           JUNCTION     0.04     0.10     9.13     0  02:25        0.10
  HS02004870           JUNCTION     0.01     0.04     9.33     0  02:26        0.04
  HS02004862           JUNCTION     0.02     0.05     9.43     0  02:27        0.05
  HS02004856           JUNCTION     0.08     0.11     9.53     0  02:26        0.11
  HS02004852           JUNCTION     0.01     0.03     9.54     0  02:27        0.03
  HS02004848           JUNCTION     0.01     0.03     9.63     0  02:26        0.03
  HS02004842           JUNCTION     0.33     0.36     9.63     0  02:26        0.36
  HS02004837           JUNCTION     0.03     0.05     9.63     0  02:26        0.05
  HS02004830           JUNCTION     0.04     0.06     9.53     0  02:26        0.06
  HS02004824           JUNCTION     0.02     0.04     9.45     0  02:27        0.04
  HS02004817           JUNCTION     0.43     0.53     9.37     0  02:27        0.53
  HS02004807           JUNCTION     0.12     0.20     9.37     0  02:27        0.20
  HS02004802           JUNCTION     0.16     0.24     9.37     0  02:27        0.24
  HS02004799           JUNCTION     0.11     0.25     9.46     0  02:25        0.25
  HS02004792           JUNCTION     0.03     0.09     9.62     0  02:25        0.09
  HS02004788           JUNCTION     0.02     0.07     9.97     0  02:26        0.07
  HS02004785           JUNCTION     0.04     0.13    10.03     0  02:25        0.13
  HS02004777           JUNCTION     0.14     0.24    10.04     0  02:25        0.24
  HS02004770           JUNCTION     0.11     0.21    10.04     0  02:25        0.21
  HS02004480           JUNCTION     0.08     0.19     9.43     0  02:26        0.19
  HS02004479           JUNCTION     0.11     0.23     9.43     0  02:25        0.23
  HS02004478           JUNCTION     0.06     0.12     9.35     0  02:26        0.12
  YS02001745           JUNCTION     0.60     0.86     8.38     0  03:49        0.86
  YS02001748           JUNCTION     0.98     1.31     8.39     0  03:42        1.30
  YS02001751           JUNCTION     1.15     1.99     8.87     0  02:55        1.50
  YS02001754           JUNCTION     1.40     1.81     8.41     0  02:55        1.79
  YS02001762           JUNCTION     1.60     2.02     8.42     0  03:41        1.99
  YS02001765           JUNCTION     1.55     1.96     8.41     0  03:42        1.94
  YS02001767           JUNCTION     1.51     1.92     8.41     0  03:39        1.89
  YS02001770           JUNCTION     1.51     1.90     8.40     0  03:42        1.88
  YS02001774           JUNCTION     1.58     1.96     8.39     0  03:37        1.96
  YS02001779           JUNCTION     1.33     1.68     8.37     0  03:22        1.68
  YS02001882           JUNCTION     0.35     0.63     7.35     0  03:01        0.63
  YS02001884           JUNCTION     0.44     0.73     7.34     0  03:05        0.72
  YS02001759           JUNCTION     1.63     2.05     8.42     0  03:46        2.03
  YS02001887           JUNCTION     0.52     0.81     7.34     0  03:02        0.80
  YS02001890           JUNCTION     0.55     0.83     7.34     0  03:02        0.83
  YS02001898           JUNCTION     0.32     0.59     7.33     0  03:03        0.59
  YS02001901           JUNCTION     0.43     0.72     7.33     0  03:03        0.72
  YS02001904           JUNCTION     0.41     0.69     7.32     0  03:06        0.69
  YS02001907           JUNCTION     0.74     1.05     7.34     0  02:52        1.04
  YS02001910           JUNCTION     0.53     0.82     7.33     0  03:03        0.82
  YS02001915           JUNCTION     0.33     0.61     7.33     0  03:03        0.61
  YS02001918           JUNCTION     0.11     0.26     7.32     0  03:04        0.25
  YS02001619           JUNCTION     1.12     1.61     8.54     0  03:01        1.45
  YS02001629           JUNCTION     1.46     1.85     8.40     0  03:07        1.83
  YS02001641           JUNCTION     1.56     1.93     8.37     0  03:25        1.93
  YS02001644           JUNCTION     1.57     1.92     8.35     0  03:23        1.92
  YS02001652           JUNCTION     1.41     2.16     8.76     0  02:50        1.90
  YS02001655           JUNCTION     1.18     2.20     9.05     0  02:50        1.70
  YS02001920           JUNCTION     0.21     0.33     7.34     0  03:05        0.33
  YS02001923           JUNCTION     0.08     0.12     7.38     0  03:02        0.12
  YS02001926           JUNCTION     0.17     0.23     7.67     0  03:02        0.23
  YS02001929           JUNCTION     0.08     0.12     7.81     0  03:01        0.12
  YS02001658           JUNCTION     0.92     2.30     9.44     0  03:00        1.46
  YS02001661           JUNCTION     0.71     1.48     8.88     0  03:43        1.22
  YS02001664           JUNCTION     0.31     0.57     8.49     0  03:45        0.56
  YS02001622           JUNCTION     1.14     1.56     8.47     0  03:07        1.48
  YS02001633           JUNCTION     1.55     1.95     8.40     0  03:11        1.92
  YS02001649           JUNCTION     1.60     2.05     8.44     0  03:39        2.05
  YS02001757           JUNCTION     1.73     2.16     8.42     0  03:42        2.15
  YS02001895           JUNCTION     0.31     0.58     7.33     0  03:00        0.58
  YS02001625           JUNCTION     1.42     1.78     8.38     0  03:06        1.77
  YS02163301           JUNCTION     1.49     1.90     8.42     0  03:08        1.86
  YS02163601           JUNCTION     1.60     1.98     8.38     0  03:09        1.97
  YS02164001           JUNCTION     1.55     1.92     8.37     0  03:24        1.91
  YS02001647           JUNCTION     1.40     1.80     8.41     0  03:41        1.79
  YSB1154              JUNCTION     0.25     0.38     9.43     0  02:26        0.38
  YSB6556              JUNCTION     0.15     0.26     9.43     0  02:26        0.26
  YSB1174              JUNCTION     0.20     0.32     9.43     0  02:26        0.32
  YSB1171              JUNCTION     0.40     0.53     9.43     0  02:25        0.53
  YS02006553           JUNCTION     0.74     1.07     7.35     0  02:53        1.04
  YS02006561           JUNCTION     0.17     0.33     6.99     0  03:06        0.33
  YS02006556           JUNCTION     0.71     1.02     7.33     0  03:02        1.01
  YS02006558           JUNCTION     0.76     1.07     7.33     0  03:06        1.04
  YS02001783           JUNCTION     0.38     1.00     7.15     0  03:08        0.93
  YS02001784           JUNCTION     0.42     1.01     7.08     0  03:08        0.92
  YS02001786           JUNCTION     0.40     0.98     7.01     0  03:00        0.89
  YS02001788           JUNCTION     0.37     0.95     6.93     0  03:03        0.90
  YS02001790           JUNCTION     0.54     1.20     6.84     0  05:39        1.15
  YS02001791           JUNCTION     0.59     1.61     7.08     0  02:29        1.22
  YS02001793           JUNCTION     0.88     1.81     6.64     0  03:00        1.80
  WS02004139           JUNCTION     0.47     0.65     5.56     0  03:19        0.65
  WSC                  OUTFALL      0.22     0.34     1.01     0  03:17        0.34
  3                    OUTFALL      0.05     0.20     6.20     0  05:50        0.20
  4                    OUTFALL      0.00     0.00     7.00     0  00:00        0.00
  5                    OUTFALL      0.00     0.00     5.00     0  00:00        0.00
  JK-storage           STORAGE      3.44     5.80     6.60     0  02:45        5.80
  CC-storage           STORAGE      0.98     1.37     8.37     0  03:38        1.37
  XR-storage           STORAGE      7.54     7.72     5.72     0  01:38        7.72
  
  
  *******************
  Node Inflow Summary
  *******************
  
  -------------------------------------------------------------------------------------------------
                                  Maximum  Maximum                  Lateral       Total        Flow
                                  Lateral    Total  Time of Max      Inflow      Inflow     Balance
                                   Inflow   Inflow   Occurrence      Volume      Volume       Error
  Node                 Type           LPS      LPS  days hr:min    10^6 ltr    10^6 ltr     Percent
  -------------------------------------------------------------------------------------------------
  WS02001211           JUNCTION      7.35   293.90     0  03:27       0.207         3.6       0.848
  WS02001212           JUNCTION      0.00   295.37     0  03:28           0        3.57       0.425
  WS02001213           JUNCTION      0.00   296.78     0  03:29           0        3.56       0.572
  WS02003069           JUNCTION      0.32   726.80     0  03:15     0.00902        8.57       0.287
  WS02003072           JUNCTION      0.00   726.61     0  03:16           0        8.54       0.363
  WS02003073           JUNCTION      1.82   728.39     0  03:17      0.0514        8.56       0.392
  WS02003060           JUNCTION     16.53   726.47     0  03:15       0.466        8.58       0.281
  WS02003066           JUNCTION      0.00   462.17     0  02:35           0        4.62       0.089
  WS02003059           JUNCTION      0.00   299.60     0  03:29           0        3.54       0.964
  WS02003067           JUNCTION      0.00   462.12     0  02:35           0        4.63       0.191
  WS02004401           JUNCTION      0.00   469.98     0  02:30           0        4.85       0.435
  WS02004402           JUNCTION      0.00   468.99     0  02:30           0        4.83       0.411
  WS02004403           JUNCTION      0.00   468.16     0  02:31           0        4.81       0.375
  WS02004404           JUNCTION      0.16   468.00     0  02:31     0.00457         4.8       0.284
  WS02004406           JUNCTION      0.00   467.76     0  02:31           0        4.77       0.695
  WS02004409           JUNCTION      0.00   467.46     0  02:32           0        4.73       0.325
  WS02004410           JUNCTION      0.00   465.41     0  02:32           0        4.71       0.367
  WS02004411           JUNCTION      0.00   463.88     0  02:33           0        4.69       0.378
  WS02004412           JUNCTION      0.00   462.89     0  02:34           0        4.68       0.411
  WS02004413           JUNCTION      0.00   462.36     0  02:34           0        4.66       0.615
  WS02004405           JUNCTION      0.04   467.91     0  02:31     0.00107        4.79       0.425
  WS02006109           JUNCTION      1.23   470.08     0  02:28      0.0347        4.93       0.403
  WS02006110           JUNCTION      0.00   470.10     0  02:28           0        4.91       0.399
  WS02006111           JUNCTION      0.00   483.94     0  02:28           0        4.88       0.093
  WS02006112           JUNCTION      7.75   478.61     0  02:28      0.0414        4.92       0.584
  WS02006113           JUNCTION      0.00   470.07     0  02:28           0        4.89       0.192
  WS02006115           JUNCTION      0.00   474.61     0  02:29           0        4.89       0.402
  WS02006116           JUNCTION      0.00   471.73     0  02:30           0        4.87       0.383
  WS02006230           JUNCTION     10.28   323.71     0  05:55        0.29        3.63       0.348
  WS02006231           JUNCTION      0.00   313.44     0  05:55           0        3.35       0.355
  WS02006232           JUNCTION      0.00   313.46     0  05:55           0        3.36       0.476
  WS02006234           JUNCTION      0.00   313.50     0  05:54           0        3.37       0.224
  WS02006235           JUNCTION      0.00   313.54     0  05:54           0        3.46       0.310
  WS02006238           JUNCTION      0.00   232.46     0  03:00           0        1.92       0.367
  WS02006240           JUNCTION      0.00   234.16     0  03:01           0        1.87       0.686
  WS02006242           JUNCTION      0.00   234.76     0  03:00           0        1.85       0.797
  WS02006243           JUNCTION      0.00   235.09     0  03:00           0        1.83       0.072
  WS02006245           JUNCTION      0.00   235.35     0  03:00           0        1.84       0.803
  WS02006247           JUNCTION      0.00   235.54     0  03:00           0        1.85       0.389
  WS02006248           JUNCTION      0.00   235.69     0  02:59           0        1.85       0.070
  WS02006249           JUNCTION      0.00   235.85     0  02:58           0        1.86       0.816
  WS02006239           JUNCTION      0.00   233.21     0  03:00           0         1.9       0.393
  WS02006251           JUNCTION      0.08   236.17     0  02:54     0.00217        1.88       0.421
  WS02006252           JUNCTION      0.00   200.00     0  02:50           0        1.64       0.029
  WS02006253           JUNCTION      1.03    41.73     0  02:26     0.00535       0.247       1.736
  WS02006256           JUNCTION      0.00   599.94     0  02:40           0        2.92       0.106
  WS02004138           JUNCTION      0.00   285.00     0  03:20           0        3.42       0.102
  WS02004407           JUNCTION      0.00   467.60     0  02:31           0        4.73       0.150
  WS02006228           JUNCTION      0.00   468.85     0  02:28           0        4.91       0.309
  WS02006229           JUNCTION      0.00   468.78     0  02:27           0        4.93       0.277
  WS02006280           JUNCTION      0.00   204.81     0  02:27           0        1.31       0.005
  WS02006284           JUNCTION      0.10   204.80     0  02:27      0.0027        1.31       0.088
  WS02006287           JUNCTION      0.00   204.70     0  02:27           0        1.31       0.053
  WSF200               JUNCTION      0.00   462.16     0  02:35           0        4.62       0.081
  HS02004901           JUNCTION      9.37     9.37     0  02:23      0.0498      0.0501       3.647
  HS02004881           JUNCTION      4.04    40.76     0  02:26      0.0217        0.23       0.043
  HS02004876           JUNCTION      7.43    36.76     0  02:26      0.0417       0.209       0.259
  HS02004870           JUNCTION      7.54    29.42     0  02:26      0.0411       0.167       0.066
  HS02004862           JUNCTION      7.28    22.06     0  02:26      0.0469       0.126       0.137
  HS02004856           JUNCTION      5.65    14.84     0  02:26       0.031      0.0805       1.827
  HS02004852           JUNCTION      0.00     9.33     0  02:26           0      0.0496       0.109
  HS02004848           JUNCTION     15.91    15.91     0  02:26      0.0988      0.0988       0.047
  HS02004842           JUNCTION      0.00     6.79     0  02:52           0      0.0622      26.413
  HS02004837           JUNCTION     19.22    25.66     0  02:25       0.251         0.3       0.272
  HS02004830           JUNCTION      0.15    25.80     0  02:26     0.00423        0.29       0.427
  HS02004824           JUNCTION     19.28    44.91     0  02:27       0.129       0.418       0.129
  HS02004817           JUNCTION      0.60    45.51     0  02:27      0.0169       0.435       3.988
  HS02004807           JUNCTION     13.93    58.94     0  02:27      0.0757       0.494       0.884
  HS02004802           JUNCTION      0.00    59.00     0  02:28           0       0.491       0.815
  HS02004799           JUNCTION     11.15   123.20     0  02:25      0.0613       0.713       0.360
  HS02004792           JUNCTION     47.36   112.13     0  02:24       0.263       0.652       0.064
  HS02004788           JUNCTION     17.07    65.26     0  02:25       0.132        0.39       0.102
  HS02004785           JUNCTION      0.15    48.39     0  02:25     0.00423       0.259       0.188
  HS02004777           JUNCTION      0.03    48.40     0  02:24    0.000846        0.26       2.037
  HS02004770           JUNCTION     39.46    48.64     0  02:23       0.213       0.261       1.202
  HS02004480           JUNCTION      0.00   146.07     0  02:25           0       0.837       0.127
  HS02004479           JUNCTION      0.00    23.09     0  02:27           0       0.137       0.538
  HS02004478           JUNCTION      0.00   204.70     0  02:26           0        1.31       0.032
  YS02001745           JUNCTION    149.28   291.48     0  03:08        1.44        1.45       0.756
  YS02001748           JUNCTION      0.04   418.67     0  03:08     0.00127        1.44       1.574
  YS02001751           JUNCTION      0.01   323.42     0  02:51     0.00031        1.41       1.683
  YS02001754           JUNCTION      0.26   199.48     0  03:00     0.00733        1.39       1.812
  YS02001762           JUNCTION      0.00   199.64     0  03:00           0        1.46       1.474
  YS02001765           JUNCTION      0.00   197.83     0  03:00           0        1.46       1.705
  YS02001767           JUNCTION      0.54   196.31     0  03:00      0.0151        1.48       2.469
  YS02001770           JUNCTION    187.24   192.03     0  03:00        1.65        1.66       1.934
  YS02001774           JUNCTION      0.00    71.34     0  03:59           0       0.167      17.878
  YS02001779           JUNCTION      0.01    71.04     0  03:59    0.000141       0.134      13.059
  YS02001882           JUNCTION      0.00    11.89     0  03:01           0      0.0112      21.028
  YS02001884           JUNCTION      0.00    15.10     0  03:04           0      0.0377      16.911
  YS02001759           JUNCTION    180.39   381.59     0  03:00        1.53        2.95       0.783
  YS02001887           JUNCTION    226.70   238.63     0  03:01        1.79        1.81       0.433
  YS02001890           JUNCTION      0.00   236.62     0  02:59           0        1.77       0.481
  YS02001898           JUNCTION      0.00   236.11     0  03:00           0        1.76       0.154
  YS02001901           JUNCTION      0.00   245.24     0  02:58           0        1.76       0.352
  YS02001904           JUNCTION      0.00   239.93     0  02:57           0        1.75       0.325
  YS02001907           JUNCTION      0.00   446.33     0  03:08           0        3.82       0.604
  YS02001910           JUNCTION      0.00   218.26     0  02:56           0        2.08       0.527
  YS02001915           JUNCTION    132.40   206.85     0  03:05        1.22        2.08       0.254
  YS02001918           JUNCTION      0.00    76.51     0  03:05           0       0.866       0.176
  YS02001619           JUNCTION    129.20   129.20     0  03:01        1.21        1.21       1.020
  YS02001629           JUNCTION      0.00   218.18     0  02:47           0        1.12       2.614
  YS02001641           JUNCTION      0.00   315.62     0  02:58           0        2.44       0.883
  YS02001644           JUNCTION    142.03   587.86     0  03:44        1.38        5.66       0.475
  YS02001652           JUNCTION      0.00   246.10     0  02:59           0        1.26       1.920
  YS02001655           JUNCTION      0.15   382.65     0  02:49     0.00434        1.29       1.894
  YS02001920           JUNCTION      2.87    67.64     0  03:02      0.0809       0.868       0.287
  YS02001923           JUNCTION      0.04    64.78     0  03:02     0.00106       0.788       0.052
  YS02001926           JUNCTION      0.05    64.97     0  03:01     0.00147        0.79       0.356
  YS02001929           JUNCTION     64.98    64.98     0  03:01       0.788       0.788       0.051
  YS02001658           JUNCTION      0.00   585.62     0  02:59           0        1.36       1.665
  YS02001661           JUNCTION      0.00   430.43     0  03:22           0        1.58       0.657
  YS02001664           JUNCTION    164.01   319.21     0  03:22        1.32        1.53       0.373
  YS02001622           JUNCTION      0.00   167.78     0  02:50           0        1.19       2.710
  YS02001633           JUNCTION    144.48   315.59     0  02:58        1.43         2.5       1.305
  YS02001649           JUNCTION      0.00   631.75     0  03:00           0        4.49       0.818
  YS02001757           JUNCTION      0.00  1104.24     0  03:00           0        7.01       1.331
  YS02001895           JUNCTION      0.00   239.94     0  03:02           0        1.76       0.240
  YS02001625           JUNCTION      0.00   218.50     0  02:47           0        1.16       3.459
  YS02163301           JUNCTION      0.00   173.86     0  02:58           0         1.1       2.240
  YS02163601           JUNCTION      0.11   315.67     0  02:58      0.0031        2.47       1.235
  YS02164001           JUNCTION      0.00   315.33     0  02:58           0        2.45       0.828
  YS02001647           JUNCTION      0.00   455.56     0  02:58           0        3.73       0.773
  YSB1154              JUNCTION     13.22    13.22     0  02:24      0.0743      0.0752       1.963
  YSB6556              JUNCTION      0.00    13.14     0  02:25           0      0.0759       1.671
  YSB1174              JUNCTION     10.23    10.23     0  02:22       0.054      0.0546       2.413
  YSB1171              JUNCTION      0.00    23.08     0  02:25           0       0.136       4.884
  YS02006553           JUNCTION      0.00   439.72     0  03:00           0        3.81       0.392
  YS02006561           JUNCTION      0.00   677.26     0  03:03           0        5.39       0.004
  YS02006556           JUNCTION      0.00   440.12     0  03:00           0        3.81       0.282
  YS02006558           JUNCTION    197.15   651.65     0  03:00        1.63        5.42       0.096
  YS02001783           JUNCTION      0.00   632.63     0  02:58           0        5.39       0.032
  YS02001784           JUNCTION      1.06   630.93     0  02:58      0.0299        5.42       0.059
  YS02001786           JUNCTION      0.06   630.98     0  02:58     0.00159        5.42       0.050
  YS02001788           JUNCTION      0.07   632.35     0  03:00       0.002        5.42       0.029
  YS02001790           JUNCTION      0.15   631.14     0  02:59     0.00437        5.42       0.026
  YS02001791           JUNCTION      0.00   631.34     0  02:59           0        5.42       0.014
  YS02001793           JUNCTION      0.00   631.41     0  02:59           0        5.42       0.013
  WS02004139           JUNCTION      0.32   285.32     0  03:13     0.00905        3.43       0.939
  WSC                  OUTFALL       0.00   728.46     0  03:17           0        8.53       0.000
  3                    OUTFALL       0.00   478.03     0  05:50           0        1.31       0.000
  4                    OUTFALL       0.00     0.00     0  00:00           0           0       0.000 ltr
  5                    OUTFALL       0.00     0.00     0  00:00           0           0       0.000 ltr
  JK-storage           STORAGE       0.00   729.18     0  02:24           0        5.57      -1.779
  CC-storage           STORAGE       0.00  1104.82     0  03:00           0        5.52       1.090
  XR-storage           STORAGE     442.93   442.93     0  03:01        8.07        8.67      -0.000
  
  
  **********************
  Node Surcharge Summary
  **********************
  
  Surcharging occurs when water rises above the top of the highest conduit.
  ---------------------------------------------------------------------
                                               Max. Height   Min. Depth
                                   Hours       Above Crown    Below Rim
  Node                 Type      Surcharged         Meters       Meters
  ---------------------------------------------------------------------
  WS02006109           JUNCTION        0.56          0.074        1.746
  WS02006228           JUNCTION        0.52          0.086        2.114
  YS02001748           JUNCTION        4.60          0.231        0.959
  YS02001751           JUNCTION        4.90          0.991        0.209
  YS02001754           JUNCTION        5.24          0.755        0.395
  YS02001762           JUNCTION        5.51          1.019        0.131
  YS02001765           JUNCTION        5.48          0.965        0.135
  YS02001767           JUNCTION        5.44          0.920        0.110
  YS02001770           JUNCTION        5.42          0.872        0.048
  YS02001774           JUNCTION        5.49          0.964        0.086
  YS02001779           JUNCTION        5.21          0.680        0.000
  YS02001759           JUNCTION        5.54          1.054        0.156
  YS02001907           JUNCTION        0.31          0.045        0.905
  YS02001619           JUNCTION        4.85          0.610        0.000
  YS02001629           JUNCTION        4.89          0.470        0.000
  YS02001641           JUNCTION        5.48          0.930        0.170
  YS02001644           JUNCTION        5.49          0.920        0.000
  YS02001652           JUNCTION        5.30          1.130        0.000
  YS02001655           JUNCTION        4.94          1.200        0.000
  YS02001658           JUNCTION        4.63          1.300        0.000
  YS02001661           JUNCTION        0.02          0.407        0.983
  YS02001622           JUNCTION        4.94          0.564        0.056
  YS02001633           JUNCTION        5.47          0.925        0.135
  YS02001649           JUNCTION        5.52          1.050        0.000
  YS02001757           JUNCTION        5.64          1.160        0.050
  YS02001625           JUNCTION        5.36          0.780        0.000
  YS02163301           JUNCTION        5.44          0.902        0.128
  YS02163601           JUNCTION        5.52          0.985        0.095
  YS02164001           JUNCTION        5.47          0.917        0.183
  YS02001647           JUNCTION        5.33          0.796        0.104
  YS02006553           JUNCTION        0.43          0.066        1.124
  YS02001783           JUNCTION        0.21          0.205        1.395
  YS02001784           JUNCTION        0.45          0.212        1.278
  YS02001786           JUNCTION        0.23          0.178        1.252
  YS02001788           JUNCTION        0.14          0.152        1.328
  YS02001790           JUNCTION        2.90          0.395        0.762
  YS02001791           JUNCTION        3.28          0.806        1.114
  YS02001793           JUNCTION        3.39          0.806        1.794
  
  
  *********************
  Node Flooding Summary
  *********************
  
  Flooding refers to all water that overflows a node, whether it ponds or not.
  --------------------------------------------------------------------------
                                                             Total   Maximum
                                 Maximum   Time of Max       Flood    Ponded
                        Hours       Rate    Occurrence      Volume     Depth
  Node                 Flooded       LPS   days hr:min    10^6 ltr    Meters
  --------------------------------------------------------------------------
  YS02001779              1.37     70.90      0  03:59       0.112     0.000
  YS02001619              0.01     18.47      0  03:01       0.000     0.000
  YS02001629              0.01     27.20      0  03:08       0.000     0.000
  YS02001644              4.08    587.50      0  03:44       3.756     0.000
  YS02001652              0.01     22.42      0  02:50       0.000     0.000
  YS02001655              0.01    123.55      0  02:50       0.000     0.000
  YS02001658              0.01    147.25      0  03:00       0.000     0.000
  YS02001649              0.01      6.61      0  03:43       0.000     0.000
  YS02001625              0.05     19.64      0  03:23       0.001     0.000
  JK-storage              2.26    631.43      0  02:59       2.753     0.000
  XR-storage              6.20    440.77      0  03:00       4.319     0.000
  
  
  **********************
  Storage Volume Summary
  **********************
  
  --------------------------------------------------------------------------------------------------
                         Average     Avg  Evap Exfil       Maximum     Max    Time of Max    Maximum
                          Volume    Pcnt  Pcnt  Pcnt        Volume    Pcnt     Occurrence    Outflow
  Storage Unit           1000 m3    Full  Loss  Loss       1000 m3    Full    days hr:min        LPS
  --------------------------------------------------------------------------------------------------
  JK-storage               0.173      59     0     0         0.291     100       0  02:45     599.94
  CC-storage               2.726      17     0     0         3.821      24       0  03:38     200.00
  XR-storage               0.905      98     0     0         0.926     100       0  01:38     285.00
  
  
  ***********************
  Outfall Loading Summary
  ***********************
  
  -----------------------------------------------------------
                         Flow       Avg       Max       Total
                         Freq      Flow      Flow      Volume
  Outfall Node           Pcnt       LPS       LPS    10^6 ltr
  -----------------------------------------------------------
  WSC                   99.99    333.23    728.46       8.528
  3                     51.49    154.50    478.03       1.312
  4                      0.00      0.00      0.00       0.000
  5                      0.00      0.00      0.00       0.000
  -----------------------------------------------------------
  System                37.87    487.73   1036.49       9.840
  
  
  ********************
  Link Flow Summary
  ********************
  
  -----------------------------------------------------------------------------
                                 Maximum  Time of Max   Maximum    Max/    Max/
                                  |Flow|   Occurrence   |Veloc|    Full    Full
  Link                 Type          LPS  days hr:min     m/sec    Flow   Depth
  -----------------------------------------------------------------------------
  WS02003066WSF200     CONDUIT    462.16     0  02:35      2.70    0.08    0.21
  WS02006287WS02006284 CONDUIT    204.71     0  02:27      1.62    0.09    0.22
  WS02006284WS02006280 CONDUIT    204.81     0  02:27      1.86    0.09    0.20
  WS02006280WS02006229 CONDUIT    204.81     0  02:27      2.99    0.04    0.14
  WS02006229WS02006228 CONDUIT    468.85     0  02:28      0.93    1.55    1.00
  WS02006256WS02006235 CONDUIT    166.25     0  00:01      2.58    1.76    1.00
  WS02006253WS02006251 CONDUIT     49.25     0  02:25      0.48    0.15    0.63
  WS02006252WS02006251 CONDUIT    200.34     0  02:50      1.97    0.74    0.76
  WS02006251WS02006249 CONDUIT    235.85     0  02:58      0.96    0.68    0.62
  WS02006249WS02006248 CONDUIT    235.69     0  02:59      1.03    1.29    0.58
  WS02006248WS02006247 CONDUIT    235.54     0  03:00      1.00    0.51    0.60
  WS02006247WS02006245 CONDUIT    235.35     0  03:00      0.97    1.87    0.62
  WS02006245WS02006243 CONDUIT    235.09     0  03:00      1.05    0.70    0.60
  WS02006243WS02006242 CONDUIT    234.76     0  03:00      0.91    0.50    0.69
  WS02006242WS02006240 CONDUIT    234.16     0  03:01      0.82    0.93    0.75
  WS02006240WS02006239 CONDUIT    233.21     0  03:00      0.93    0.73    0.74
  WS02006239WS02006238 CONDUIT    232.46     0  03:00      0.80    0.74    0.84
  WS02006238WS02006235 CONDUIT    234.49     0  06:10      1.25    0.52    0.88
  WS02006235WS02006234 CONDUIT    313.50     0  05:54      0.95    3.31    0.82
  WS02006234WS02006232 CONDUIT    313.46     0  05:55      1.13    0.63    0.90
  WS02006232WS02006231 CONDUIT    313.44     0  05:55      0.95    0.66    0.87
  WS02006231WS02006230 CONDUIT    313.43     0  05:55      1.30    4.75    0.76
  WS02006230WS02006229 CONDUIT    323.70     0  05:56      0.86    7.20    1.00
  WS02006228WS02006109 CONDUIT    468.85     0  02:28      0.93    2.05    1.00
  WS02006116WS02004401 CONDUIT    469.98     0  02:30      0.73    0.65    0.78
  WS02006115WS02006116 CONDUIT    471.73     0  02:30      0.82    0.61    0.70
  WS02006113WS02006111 CONDUIT    483.94     0  02:28      2.34    0.58    0.43
  WS02006112WS02006115 CONDUIT    474.61     0  02:29      0.69    0.28    0.83
  WS02006111WS02006112 CONDUIT    471.53     0  02:29      1.34    0.22    0.66
  WS02006110WS02006113 CONDUIT    470.07     0  02:28      1.14    0.43    0.76
  WS02006109WS02006110 CONDUIT    470.10     0  02:28      0.94    0.90    0.97
  WS02004411WS02004412 CONDUIT    462.89     0  02:34      0.86    0.66    0.65
  WS02004401WS02004402 CONDUIT    468.99     0  02:30      0.77    0.56    0.81
  WS02004413WS02003067 CONDUIT    462.12     0  02:35      1.02    0.20    0.56
  WS02004412WS02004413 CONDUIT    462.36     0  02:34      0.75    0.31    0.73
  WS02004410WS02004411 CONDUIT    463.88     0  02:33      0.88    0.63    0.64
  WS02004409WS02004410 CONDUIT    465.41     0  02:32      0.91    0.60    0.62
  WS02004407WS02004409 CONDUIT    467.46     0  02:32      1.40    0.17    0.44
  WS02004406WS02004407 CONDUIT    467.60     0  02:31      0.96    0.21    0.60
  WS02004405WS02004406 CONDUIT    467.76     0  02:31      0.66    0.92    0.91
  WS02004404WS02004405 CONDUIT    467.87     0  02:31      0.84    4.58    0.91
  WS02004403WS02004404 CONDUIT    467.83     0  02:31      0.74    0.34    0.88
  WS02004402WS02004403 CONDUIT    468.16     0  02:31      0.75    0.67    0.83
  WS02004139WS02001211 CONDUIT    286.55     0  03:27      0.69    0.36    0.52
  WS02004138WS02004139 CONDUIT    285.00     0  03:13      2.94    0.06    0.38
  WS02003067WS02003066 CONDUIT    462.17     0  02:35      1.11    0.15    0.40
  WS02001213WS02003059 CONDUIT    299.60     0  03:29      0.65    0.49    0.69
  WS02001212WS02001213 CONDUIT    296.78     0  03:29      1.20    0.46    0.39
  WS02001211WS02001212 CONDUIT    295.37     0  03:28      0.67    0.23    0.57
  WS02003072WS02003073 CONDUIT    726.57     0  03:17      1.58    1.57    0.43
  WS02003069WS02003072 CONDUIT    726.61     0  03:16      1.49    0.35    0.44
  WS02003060WS02003069 CONDUIT    726.48     0  03:15      1.75    0.28    0.39
  WS02003059WS02003060 CONDUIT    303.57     0  03:28      0.79    0.20    0.59
  HS02004901HS02004770 CONDUIT      9.22     0  02:24      0.05    0.03    0.31
  HS02004876HS02004881 CONDUIT     36.80     0  02:26      0.59    0.39    0.09
  HS02004870HS02004876 CONDUIT     29.40     0  02:26      0.41    0.02    0.10
  HS02004842HS02004848 CONDUIT      6.79     0  02:52      0.04    0.00    0.28
  HS02004837HS02004842 CONDUIT      7.01     0  03:02      0.41    0.00    0.29
  HS02004830HS02004837 CONDUIT     25.65     0  02:26      0.46    0.03    0.08
  HS02004824HS02004830 CONDUIT     25.79     0  02:27      0.49    0.03    0.08
  HS02004817HS02004824 CONDUIT     44.91     0  02:27      0.17    0.02    0.41
  HS02004770HS02004777 CONDUIT     48.37     0  02:24      0.21    0.09    0.33
  HS02004799HS02004480 CONDUIT    123.11     0  02:25      0.58    0.16    0.31
  HS02004792HS02004799 CONDUIT    112.11     0  02:25      0.66    0.07    0.24
  HS02004788HS02004792 CONDUIT     65.23     0  02:26      0.81    0.04    0.11
  HS02004785HS02004788 CONDUIT     48.34     0  02:26      0.49    0.36    0.14
  HS02004777HS02004785 CONDUIT     48.24     0  02:25      0.26    0.06    0.26
  HS02004480HS02004478 CONDUIT    146.06     0  02:26      0.94    0.62    0.22
  HS02004479HS02004480 CONDUIT     23.22     0  02:27      0.27    0.02    0.30
  HS02004862HS02004870 CONDUIT     22.03     0  02:27      0.49    0.02    0.06
  HS02004848HS02004852 CONDUIT      9.33     0  02:26      0.33    0.01    0.04
  HS02004856HS02004862 CONDUIT     14.82     0  02:26      0.35    0.01    0.06
  HS02004852HS02004856 CONDUIT      9.31     0  02:27      0.14    0.01    0.10
  HS02004802HS02004478 CONDUIT     59.19     0  02:29      0.33    0.05    0.26
  HS02004478WS02006287 CONDUIT    204.70     0  02:27      1.31    0.06    0.17
  HS02004817HS02004807 CONDUIT     45.68     0  02:29      0.13    0.03    0.52
  HS02004807HS02004802 CONDUIT     59.00     0  02:28      0.28    0.11    0.31
  YS02001759YS02001757 CONDUIT    382.56     0  03:00      0.49    0.27    1.00
  YS02001762YS02001759 CONDUIT    201.25     0  03:00      0.26    0.23    1.00
  YS02001765YS02001762 CONDUIT    199.64     0  03:00      0.28    0.19    1.00
  YS02001770YS02001767 CONDUIT    195.78     0  03:00      0.25    0.78    1.00
  YS02001774YS02001770 CONDUIT     71.34     0  03:59      0.22    0.05    1.00
  YS02001779YS02001774 CONDUIT     71.03     0  03:59      0.09    0.04    1.00
  YS02001649YS02001757 CONDUIT    631.97     0  03:00      0.80    0.38    1.00
  YS02001767YS02001765 CONDUIT    197.83     0  03:00      0.30    0.25    1.00
  YS02006561YS02001783 CONDUIT    632.63     0  02:58      2.01    0.33    0.71
  YS02001783YS02001784 CONDUIT    629.87     0  02:58      1.45    0.87    1.00
  YS02001784YS02001785 CONDUIT    630.92     0  02:58      1.56    1.47    1.00
  YS02001788YS02001790 CONDUIT    630.99     0  02:59      2.00    0.47    1.00
  YS02001790YS02001791 CONDUIT    631.34     0  02:59      2.35    0.69    1.00
  YS02001791YS02001793 CONDUIT    631.41     0  02:59      4.58    0.27    1.00
  YS02001910YS02001907 CONDUIT    215.99     0  03:08      0.49    0.12    0.91
  YS02001786YS02001788 CONDUIT    632.28     0  03:00      1.99    1.22    1.00
  YS02001915YS02001910 CONDUIT    218.26     0  02:56      0.55    0.11    0.71
  YS02001918YS02001915 CONDUIT     81.03     0  03:05      0.44    0.04    0.43
  YS02001923YS02001920 CONDUIT     64.77     0  03:02      0.57    0.03    0.22
  YS02001926YS02001923 CONDUIT     64.74     0  03:02      0.66    0.09    0.18
  YS02001929YS02001926 CONDUIT     64.92     0  03:01      0.71    0.03    0.17
  YS02001920YS02001918 CONDUIT     76.51     0  03:05      0.57    0.07    0.29
  YS02001629YS02163301 CONDUIT    173.86     0  02:58      0.22    0.21    1.00
  YS02001619YS02001622 CONDUIT    167.78     0  02:50      0.57    0.25    1.00
  YS02001622YS02001625 CONDUIT    218.50     0  02:47      0.31    0.12    1.00
  YS02001625YS02001629 CONDUIT    218.18     0  02:47      0.28    0.10    1.00
  YS02163301YS02001633 CONDUIT    173.78     0  02:58      0.22    0.16    1.00
  YS02163601YS02164001 CONDUIT    315.33     0  02:58      0.40    0.28    1.00
  YS02164001YS02001641 CONDUIT    315.62     0  02:58      0.40    0.43    1.00
  YS02001641YS02001644 CONDUIT    316.07     0  02:58      0.40    1.02    1.00
  YS02001647YS02001649 CONDUIT    455.58     0  02:58      0.58    0.24    1.00
  YS02006553YS02006556 CONDUIT    440.12     0  03:00      0.56    0.38    0.99
  YS02006556YS02006558 CONDUIT    460.58     0  03:08      0.59    0.36    1.00
  YSB6556YSB1171       CONDUIT     13.19     0  02:28      0.06    0.01    0.57
  YS02001907YS02006553 CONDUIT    439.72     0  03:00      0.49    0.52    1.00
  YS02006558YS02006561 CONDUIT    677.26     0  03:03      3.17    1.50    0.72
  YS02001633YS02163601 CONDUIT    315.56     0  02:58      0.40    0.33    1.00
  YS02001644YS02001647 CONDUIT    455.56     0  02:58      0.58    0.27    1.00
  YS02001745YS02001748 CONDUIT    418.62     0  03:08      1.42    0.16    0.93
  YS02001748YS02001751 CONDUIT    323.40     0  02:51      1.00    0.16    1.00
  YS02001751YS02001754 CONDUIT    199.22     0  03:00      0.86    0.10    1.00
  YS02001754YS02001757 CONDUIT    198.95     0  03:00      0.33    0.08    1.00
  YS02001882YS02001884 CONDUIT     12.32     0  03:02      0.09    0.01    0.65
  YS02001884YS02001887 CONDUIT     15.75     0  03:02      0.05    0.02    0.74
  YS02001890YS02001895 CONDUIT    239.94     0  03:02      0.41    0.11    0.71
  YS02001895YS02001898 CONDUIT    236.11     0  03:00      0.52    0.41    0.57
  YS02001898YS02001901 CONDUIT    245.24     0  02:58      0.46    0.16    0.65
  YS02001901YS02001904 CONDUIT    239.93     0  02:57      0.41    0.37    0.70
  YS02001904YS02001907 CONDUIT    245.48     0  02:53      0.35    0.09    0.85
  YS02001887YS02001890 CONDUIT    236.62     0  02:59      0.36    0.40    0.80
  YS02001652YS02001649 CONDUIT    246.48     0  02:59      0.56    0.12    1.00
  YS02001655YS02001652 CONDUIT    246.10     0  02:59      0.91    0.12    1.00
  YS02001658YS02001655 CONDUIT    382.49     0  02:49      1.15    0.16    1.00
  YS02001661YS02001658 CONDUIT    585.62     0  02:59      1.49    0.23    1.00
  YS02001664YS02001661 CONDUIT    430.43     0  03:22      1.36    0.13    0.71
  YSB1154YSB6556       CONDUIT     13.14     0  02:25      0.16    0.02    0.46
  YSB1174YSB1171       CONDUIT     10.08     0  02:22      0.04    0.02    0.57
  YSB1171HS02004479    CONDUIT     23.09     0  02:27      0.54    0.02    0.44
  HS02004881HS02006253 CONDUIT     40.75     0  02:26      1.69    0.01    0.10
  YS02001793JiankangQianchi CONDUIT    729.18     0  02:24      9.34    0.06    1.00
  YS02001757CaochengTiaoxuchi CONDUIT   1104.82     0  03:00      1.52    0.49    1.00
  WSF200WS02003060     CONDUIT    462.13     0  02:35      1.88    0.10    0.30
  1                    CONDUIT    728.46     0  03:17      3.05    0.25    0.34
  2                    CONDUIT      0.00     0  00:00      0.00    0.00    0.00
  3                    CONDUIT    478.03     0  05:50      9.72    0.76    0.66
  4                    CONDUIT      0.00     0  00:00      0.00    0.00    0.00
  CC-Pump-1            PUMP       200.00     0  07:40              1.00
  CC-Pump-2            PUMP       200.00     0  05:50              1.00
  JK-Pump-1            PUMP       300.00     0  00:00              1.00
  JK-Pump-2            PUMP       299.96     0  05:50              1.00
  XR-Pump-1            PUMP        95.00     0  00:00              1.00
  XR-Pump-2            PUMP        95.00     0  03:30              1.00
  XR-Pump-3            PUMP        95.00     0  01:40              1.00
  XR-Pump-4            PUMP        95.00     0  00:00              1.00
  
  
  ***************************
  Flow Classification Summary
  ***************************
  
  -------------------------------------------------------------------------------------
                      Adjusted    ---------- Fraction of Time in Flow Class ---------- 
                       /Actual         Up    Down  Sub   Sup   Up    Down  Norm  Inlet 
  Conduit               Length    Dry  Dry   Dry   Crit  Crit  Crit  Crit  Ltd   Ctrl  
  -------------------------------------------------------------------------------------
  WS02003066WSF200        1.00   0.08  0.00  0.00  0.00  0.92  0.00  0.00  0.77  0.00
  WS02006287WS02006284    1.00   0.05  0.01  0.00  0.59  0.35  0.00  0.00  0.77  0.00
  WS02006284WS02006280    1.00   0.06  0.00  0.00  0.00  0.00  0.00  0.94  0.00  0.00
  WS02006280WS02006229    1.00   0.06  0.00  0.00  0.00  0.00  0.00  0.94  0.00  0.00
  WS02006229WS02006228    1.00   0.00  0.00  0.00  0.98  0.00  0.00  0.02  0.00  0.00
  WS02006256WS02006235    1.00   0.00  0.00  0.00  1.00  0.00  0.00  0.00  0.00  0.00
  WS02006253WS02006251    1.00   0.04  0.02  0.00  0.94  0.00  0.01  0.00  0.00  0.00
  WS02006252WS02006251    1.00   0.10  0.00  0.00  0.00  0.00  0.90  0.00  0.00  0.00
  WS02006251WS02006249    1.00   0.00  0.00  0.00  1.00  0.00  0.00  0.00  0.51  0.00
  WS02006249WS02006248    1.00   0.00  0.03  0.00  0.64  0.00  0.33  0.00  0.00  0.00
  WS02006248WS02006247    1.00   0.03  0.00  0.00  0.96  0.00  0.00  0.00  0.42  0.00
  WS02006247WS02006245    1.00   0.03  0.00  0.00  0.96  0.00  0.00  0.01  0.00  0.00
  WS02006245WS02006243    1.00   0.02  0.01  0.00  0.89  0.00  0.00  0.09  0.05  0.00
  WS02006243WS02006242    1.00   0.01  0.01  0.00  0.99  0.00  0.00  0.00  0.38  0.00
  WS02006242WS02006240    1.00   0.01  0.00  0.00  0.99  0.00  0.00  0.00  0.00  0.00
  WS02006240WS02006239    1.00   0.00  0.00  0.00  0.94  0.00  0.00  0.06  0.02  0.00
  WS02006239WS02006238    1.00   0.00  0.00  0.00  1.00  0.00  0.00  0.00  0.04  0.00
  WS02006238WS02006235    1.00   0.00  0.00  0.00  1.00  0.00  0.00  0.00  0.00  0.00
  WS02006235WS02006234    1.00   0.00  0.00  0.00  0.95  0.00  0.05  0.00  0.00  0.00
  WS02006234WS02006232    1.00   0.00  0.00  0.00  1.00  0.00  0.00  0.00  0.04  0.00
  WS02006232WS02006231    1.00   0.00  0.00  0.00  0.99  0.00  0.01  0.00  0.00  0.00
  WS02006231WS02006230    1.00   0.00  0.00  0.00  0.26  0.00  0.73  0.00  0.00  0.00
  WS02006230WS02006229    1.00   0.00  0.00  0.00  0.98  0.00  0.00  0.02  0.01  0.00
  WS02006228WS02006109    1.00   0.00  0.00  0.00  0.99  0.00  0.00  0.00  0.00  0.00
  WS02006116WS02004401    1.00   0.03  0.00  0.00  0.97  0.00  0.00  0.00  0.00  0.00
  WS02006115WS02006116    1.00   0.03  0.00  0.00  0.96  0.00  0.00  0.01  0.00  0.00
  WS02006113WS02006111    1.00   0.03  0.00  0.00  0.00  0.97  0.00  0.00  0.19  0.00
  WS02006112WS02006115    1.00   0.03  0.00  0.00  0.96  0.00  0.00  0.00  0.00  0.00
  WS02006111WS02006112    1.00   0.03  0.00  0.00  0.97  0.00  0.00  0.00  0.98  0.00
  WS02006110WS02006113    1.00   0.02  0.01  0.00  0.97  0.00  0.00  0.00  0.00  0.00
  WS02006109WS02006110    1.00   0.00  0.01  0.00  0.98  0.00  0.01  0.00  0.00  0.00
  WS02004411WS02004412    1.00   0.05  0.00  0.00  0.95  0.00  0.00  0.00  0.00  0.00
  WS02004401WS02004402    1.00   0.03  0.00  0.00  0.97  0.00  0.00  0.00  0.00  0.00
  WS02004413WS02003067    1.00   0.05  0.02  0.00  0.00  0.00  0.93  0.00  0.00  0.00
  WS02004412WS02004413    1.00   0.05  0.00  0.00  0.95  0.00  0.00  0.00  0.03  0.00
  WS02004410WS02004411    1.00   0.05  0.00  0.00  0.95  0.00  0.00  0.00  0.03  0.00
  WS02004409WS02004410    1.00   0.05  0.00  0.00  0.95  0.00  0.00  0.00  0.03  0.00
  WS02004407WS02004409    1.00   0.05  0.00  0.00  0.95  0.00  0.00  0.00  0.89  0.00
  WS02004406WS02004407    1.00   0.00  0.05  0.00  0.95  0.00  0.00  0.00  0.00  0.00
  WS02004405WS02004406    1.00   0.00  0.00  0.00  1.00  0.00  0.00  0.00  0.00  0.00
  WS02004404WS02004405    1.00   0.00  0.00  0.00  1.00  0.00  0.00  0.00  0.00  0.00
  WS02004403WS02004404    1.00   0.00  0.04  0.00  0.96  0.00  0.00  0.00  0.01  0.00
  WS02004402WS02004403    1.00   0.04  0.00  0.00  0.96  0.00  0.00  0.00  0.00  0.00
  WS02004139WS02001211    1.00   0.00  0.00  0.00  0.99  0.00  0.01  0.00  0.00  0.00
  WS02004138WS02004139    1.00   0.00  0.00  0.00  0.99  0.01  0.00  0.00  1.00  0.00
  WS02003067WS02003066    1.00   0.07  0.01  0.00  0.92  0.00  0.00  0.00  0.00  0.00
  WS02001213WS02003059    1.00   0.00  0.01  0.00  0.99  0.00  0.00  0.00  0.00  0.00
  WS02001212WS02001213    1.00   0.01  0.00  0.00  0.37  0.00  0.63  0.00  0.00  0.00
  WS02001211WS02001212    1.00   0.00  0.01  0.00  0.99  0.00  0.00  0.00  0.00  0.00
  WS02003072WS02003073    1.00   0.00  0.00  0.00  0.00  0.00  0.00  1.00  0.00  0.00
  WS02003069WS02003072    1.00   0.00  0.00  0.00  0.99  0.01  0.00  0.00  0.67  0.00
  WS02003060WS02003069    1.00   0.00  0.00  0.00  0.98  0.02  0.00  0.00  0.39  0.00
  WS02003059WS02003060    1.00   0.00  0.00  0.00  0.99  0.01  0.00  0.00  0.01  0.00
  HS02004901HS02004770    1.00   0.06  0.00  0.00  0.94  0.00  0.00  0.00  0.00  0.00
  HS02004876HS02004881    1.00   0.03  0.00  0.00  0.97  0.00  0.00  0.00  0.00  0.00
  HS02004870HS02004876    1.00   0.01  0.00  0.00  0.99  0.00  0.00  0.00  0.95  0.00
  HS02004842HS02004848    1.00   0.00  0.06  0.00  0.94  0.00  0.00  0.00  0.61  0.00
  HS02004837HS02004842    1.00   0.00  0.00  0.00  0.99  0.01  0.00  0.00  0.11  0.00
  HS02004830HS02004837    1.00   0.00  0.00  0.00  1.00  0.00  0.00  0.00  0.99  0.00
  HS02004824HS02004830    1.00   0.00  0.00  0.00  1.00  0.00  0.00  0.00  0.00  0.00
  HS02004817HS02004824    1.00   0.00  0.00  0.00  1.00  0.00  0.00  0.00  1.00  0.00
  HS02004770HS02004777    1.00   0.00  0.06  0.00  0.94  0.00  0.00  0.00  0.03  0.00
  HS02004799HS02004480    1.00   0.00  0.03  0.00  0.93  0.00  0.03  0.00  0.00  0.00
  HS02004792HS02004799    1.00   0.00  0.00  0.00  0.98  0.02  0.00  0.00  0.98  0.00
  HS02004788HS02004792    1.00   0.00  0.00  0.00  0.98  0.02  0.00  0.00  0.98  0.00
  HS02004785HS02004788    1.00   0.00  0.00  0.00  1.00  0.00  0.00  0.00  0.00  0.00
  HS02004777HS02004785    1.00   0.00  0.00  0.00  1.00  0.00  0.00  0.00  0.13  0.00
  HS02004480HS02004478    1.00   0.06  0.00  0.00  0.63  0.00  0.00  0.31  0.00  0.00
  HS02004479HS02004480    1.00   0.04  0.00  0.00  0.96  0.00  0.00  0.00  0.12  0.00
  HS02004862HS02004870    1.00   0.00  0.00  0.00  1.00  0.00  0.00  0.00  0.06  0.00
  HS02004848HS02004852    1.00   0.06  0.00  0.00  0.94  0.00  0.00  0.00  0.69  0.00
  HS02004856HS02004862    1.00   0.00  0.07  0.00  0.93  0.00  0.00  0.00  0.81  0.00
  HS02004852HS02004856    1.00   0.06  0.00  0.00  0.94  0.00  0.00  0.00  0.86  0.00
  HS02004802HS02004478    1.00   0.06  0.00  0.00  0.94  0.00  0.00  0.00  0.03  0.00
  HS02004478WS02006287    1.00   0.07  0.00  0.00  0.70  0.23  0.00  0.00  0.77  0.00
  HS02004817HS02004807    1.00   0.00  0.06  0.00  0.94  0.00  0.00  0.00  0.01  0.00
  HS02004807HS02004802    1.00   0.06  0.00  0.00  0.94  0.00  0.00  0.00  0.00  0.00
  YS02001759YS02001757    1.00   0.00  0.00  0.00  1.00  0.00  0.00  0.00  0.16  0.00
  YS02001762YS02001759    1.00   0.00  0.00  0.00  1.00  0.00  0.00  0.00  0.03  0.00
  YS02001765YS02001762    1.00   0.00  0.00  0.00  1.00  0.00  0.00  0.00  0.15  0.00
  YS02001770YS02001767    1.00   0.00  0.00  0.00  1.00  0.00  0.00  0.00  0.00  0.00
  YS02001774YS02001770    1.00   0.00  0.06  0.00  0.94  0.00  0.00  0.00  0.03  0.00
  YS02001779YS02001774    1.00   0.00  0.00  0.00  1.00  0.00  0.00  0.00  0.21  0.00
  YS02001649YS02001757    1.00   0.00  0.00  0.00  1.00  0.00  0.00  0.00  0.16  0.00
  YS02001767YS02001765    1.00   0.00  0.00  0.00  1.00  0.00  0.00  0.00  0.01  0.00
  YS02006561YS02001783    1.00   0.08  0.00  0.00  0.39  0.53  0.00  0.00  0.71  0.00
  YS02001783YS02001784    1.00   0.00  0.08  0.00  0.92  0.00  0.00  0.00  0.01  0.00
  YS02001784YS02001785    1.00   0.00  0.00  0.00  1.00  0.00  0.00  0.00  0.19  0.00
  YS02001788YS02001790    1.00   0.00  0.00  0.00  0.57  0.43  0.00  0.00  0.49  0.00
  YS02001790YS02001791    1.00   0.00  0.00  0.00  0.52  0.48  0.00  0.00  0.31  0.00
  YS02001791YS02001793    1.00   0.00  0.00  0.00  0.51  0.49  0.00  0.00  0.01  0.00
  YS02001910YS02001907    1.00   0.00  0.00  0.00  0.96  0.00  0.00  0.03  0.12  0.00
  YS02001786YS02001788    1.00   0.00  0.00  0.00  0.54  0.46  0.00  0.00  0.00  0.00
  YS02001915YS02001910    1.00   0.00  0.00  0.00  0.98  0.02  0.00  0.00  0.18  0.00
  YS02001918YS02001915    1.00   0.00  0.01  0.00  0.97  0.02  0.00  0.00  0.69  0.00
  YS02001923YS02001920    1.00   0.00  0.00  0.00  1.00  0.00  0.00  0.00  1.00  0.00
  YS02001926YS02001923    1.00   0.00  0.05  0.00  0.00  0.00  0.95  0.00  0.00  0.00
  YS02001929YS02001926    1.00   0.00  0.06  0.00  0.94  0.00  0.00  0.00  0.87  0.00
  YS02001920YS02001918    1.00   0.00  0.01  0.00  0.99  0.00  0.00  0.00  0.00  0.00
  YS02001629YS02163301    1.00   0.07  0.00  0.00  0.93  0.00  0.00  0.00  0.00  0.00
  YS02001619YS02001622    1.00   0.06  0.00  0.00  0.94  0.00  0.00  0.00  0.00  0.00
  YS02001622YS02001625    1.00   0.06  0.00  0.00  0.94  0.00  0.00  0.00  0.07  0.00
  YS02001625YS02001629    1.00   0.06  0.02  0.00  0.90  0.00  0.02  0.00  0.00  0.00
  YS02163301YS02001633    1.00   0.00  0.07  0.00  0.93  0.00  0.00  0.00  0.00  0.00
  YS02163601YS02164001    1.00   0.00  0.05  0.00  0.95  0.00  0.00  0.00  0.00  0.00
  YS02164001YS02001641    1.00   0.01  0.04  0.00  0.95  0.00  0.00  0.00  0.06  0.00
  YS02001641YS02001644    1.00   0.00  0.01  0.00  0.99  0.00  0.00  0.00  0.00  0.00
  YS02001647YS02001649    1.00   0.00  0.07  0.00  0.92  0.00  0.00  0.00  0.01  0.00
  YS02006553YS02006556    1.00   0.02  0.00  0.00  0.98  0.00  0.00  0.00  0.03  0.00
  YS02006556YS02006558    1.00   0.00  0.00  0.00  1.00  0.00  0.00  0.00  0.00  0.00
  YSB6556YSB1171          1.00   0.04  0.02  0.00  0.94  0.00  0.00  0.00  0.00  0.00
  YS02001907YS02006553    1.00   0.00  0.03  0.00  0.97  0.00  0.00  0.00  0.00  0.00
  YS02006558YS02006561    1.00   0.08  0.00  0.00  0.00  0.92  0.00  0.00  0.63  0.00
  YS02001633YS02163601    1.00   0.00  0.01  0.00  0.99  0.00  0.00  0.00  0.15  0.00
  YS02001644YS02001647    1.00   0.00  0.08  0.00  0.92  0.00  0.00  0.00  0.00  0.00
  YS02001745YS02001748    1.00   0.00  0.00  0.00  0.85  0.01  0.00  0.14  0.06  0.00
  YS02001748YS02001751    1.00   0.00  0.00  0.00  0.96  0.04  0.00  0.00  0.16  0.00
  YS02001751YS02001754    1.00   0.00  0.00  0.00  0.91  0.00  0.00  0.08  0.02  0.00
  YS02001754YS02001757    1.00   0.00  0.00  0.00  0.99  0.01  0.00  0.00  0.20  0.00
  YS02001882YS02001884    1.00   0.06  0.00  0.00  0.93  0.00  0.00  0.00  0.00  0.00
  YS02001884YS02001887    1.00   0.04  0.01  0.00  0.94  0.00  0.00  0.00  0.00  0.00
  YS02001890YS02001895    1.00   0.00  0.06  0.00  0.93  0.00  0.00  0.00  0.00  0.00
  YS02001895YS02001898    1.00   0.07  0.00  0.00  0.92  0.00  0.01  0.00  0.00  0.00
  YS02001898YS02001901    1.00   0.07  0.00  0.00  0.93  0.00  0.00  0.00  0.03  0.00
  YS02001901YS02001904    1.00   0.07  0.00  0.00  0.93  0.00  0.00  0.00  0.00  0.00
  YS02001904YS02001907    1.00   0.00  0.07  0.00  0.93  0.00  0.00  0.00  0.00  0.00
  YS02001887YS02001890    1.00   0.00  0.00  0.00  0.96  0.00  0.03  0.00  0.00  0.00
  YS02001652YS02001649    1.00   0.00  0.00  0.00  1.00  0.00  0.00  0.00  0.18  0.00
  YS02001655YS02001652    1.00   0.00  0.00  0.00  0.92  0.00  0.00  0.08  0.02  0.00
  YS02001658YS02001655    1.00   0.00  0.06  0.00  0.90  0.03  0.00  0.00  0.12  0.00
  YS02001661YS02001658    1.00   0.06  0.00  0.00  0.85  0.09  0.00  0.00  0.15  0.00
  YS02001664YS02001661    1.00   0.06  0.00  0.00  0.82  0.12  0.00  0.00  0.27  0.00
  YSB1154YSB6556          1.00   0.06  0.00  0.00  0.94  0.00  0.00  0.00  0.02  0.00
  YSB1174YSB1171          1.00   0.04  0.01  0.00  0.95  0.00  0.00  0.00  0.00  0.00
  YSB1171HS02004479       1.00   0.04  0.00  0.00  0.96  0.00  0.00  0.00  0.10  0.00
  HS02004881HS02006253    1.00   0.04  0.00  0.00  0.36  0.05  0.00  0.55  0.25  0.00
  YS02001793JiankangQianchi    1.00   0.00  0.00  0.00  0.79  0.21  0.00  0.00  0.29  0.00
  YS02001757CaochengTiaoxuchi    1.00   0.00  0.10  0.00  0.90  0.00  0.00  0.00  0.00  0.00
  WSF200WS02003060        1.00   0.00  0.08  0.00  0.38  0.54  0.00  0.00  0.45  0.00
  1                       1.00   0.00  0.00  0.00  0.00  1.00  0.00  0.00  0.37  0.00
  2                       1.00   1.00  0.00  0.00  0.00  0.00  0.00  0.00  0.00  0.00
  3                       1.00   0.48  0.00  0.00  0.00  0.51  0.00  0.00  0.36  0.00
  4                       1.00   1.00  0.00  0.00  0.00  0.00  0.00  0.00  0.00  0.00
  
  
  *************************
  Conduit Surcharge Summary
  *************************
  
  ----------------------------------------------------------------------------
                                                           Hours        Hours 
                         --------- Hours Full --------   Above Full   Capacity
  Conduit                Both Ends  Upstream  Dnstream   Normal Flow   Limited
  ----------------------------------------------------------------------------
  WS02006229WS02006228        0.52      0.61      0.52      1.74         0.52
  WS02006256WS02006235        4.61      4.61      7.37      2.87         0.01
  WS02006249WS02006248        0.01      0.01      0.01      1.45         0.01
  WS02006247WS02006245        0.01      0.01      0.01      2.07         0.01
  WS02006235WS02006234        0.01      0.01      0.01      4.38         0.01
  WS02006231WS02006230        0.01      0.01      0.01      4.88         0.01
  WS02006230WS02006229        0.95      1.41      0.95      5.42         0.95
  WS02006228WS02006109        0.56      0.85      0.56      2.45         0.56
  WS02006111WS02006112        0.01      0.01      1.86      0.01         0.01
  WS02006110WS02006113        0.01      0.01      0.71      0.01         0.01
  WS02006109WS02006110        0.01      0.01      0.85      0.01         0.01
  WS02004404WS02004405        0.01      0.01      0.01      5.19         0.01
  WS02003072WS02003073        0.01      0.01      0.01      1.50         0.01
  YS02001759YS02001757        5.54      5.54      5.64      0.01         0.01
  YS02001762YS02001759        5.51      5.51      5.54      0.01         0.01
  YS02001765YS02001762        5.48      5.48      5.51      0.01         0.01
  YS02001770YS02001767        5.44      5.44      5.44      0.01         0.48
  YS02001774YS02001770        5.42      5.42      5.49      0.01         0.01
  YS02001779YS02001774        5.21      5.21      5.49      0.01         0.01
  YS02001649YS02001757        5.52      5.52      5.64      0.01         0.01
  YS02001767YS02001765        5.44      5.44      5.48      0.01         0.01
  YS02006561YS02001783        0.01      0.01      0.21      0.01         0.01
  YS02001783YS02001784        0.21      0.21      0.45      0.01         0.02
  YS02001784YS02001785        0.22      0.45      0.22      1.11         0.21
  YS02001788YS02001790        0.14      0.14      2.90      0.01         0.01
  YS02001790YS02001791        2.90      2.90      3.28      0.01         0.01
  YS02001791YS02001793        3.28      3.28      3.41      0.01         0.01
  YS02001910YS02001907        0.01      0.01      0.30      0.01         0.01
  YS02001786YS02001788        0.14      0.22      0.14      0.56         0.12
  YS02001629YS02163301        5.41      5.41      5.44      0.01         0.01
  YS02001619YS02001622        4.85      4.85      4.94      0.01         0.02
  YS02001622YS02001625        4.94      4.94      5.36      0.01         0.01
  YS02001625YS02001629        4.89      4.89      5.36      0.01         0.01
  YS02163301YS02001633        5.44      5.44      5.48      0.01         0.01
  YS02163601YS02164001        5.47      5.47      5.52      0.01         0.01
  YS02164001YS02001641        5.47      5.47      5.48      0.01         0.03
  YS02001641YS02001644        5.48      5.48      5.49      0.01         0.60
  YS02001647YS02001649        5.33      5.33      5.52      0.01         0.01
  YS02006553YS02006556        0.01      0.01      0.43      0.01         0.01
  YS02006556YS02006558        0.04      0.04      0.55      0.01         0.01
  YS02001907YS02006553        1.14      1.14      1.36      0.01         0.01
  YS02006558YS02006561        0.01      0.01      0.01      0.93         0.01
  YS02001633YS02163601        5.47      5.47      5.52      0.01         0.01
  YS02001644YS02001647        5.33      5.33      5.49      0.01         0.01
  YS02001745YS02001748        0.01      0.01      4.60      0.01         0.01
  YS02001748YS02001751        4.67      4.67      4.90      0.01         0.01
  YS02001751YS02001754        4.90      4.90      5.24      0.01         0.01
  YS02001754YS02001757        5.32      5.32      5.64      0.01         0.01
  YS02001904YS02001907        0.01      0.01      0.47      0.01         0.01
  YS02001652YS02001649        5.35      5.35      5.52      0.01         0.01
  YS02001655YS02001652        4.94      4.94      5.30      0.01         0.01
  YS02001658YS02001655        4.63      4.63      4.94      0.01         0.01
  YS02001661YS02001658        0.02      0.02      4.63      0.01         0.01
  YS02001664YS02001661        0.01      0.01      0.25      0.01         0.01
  YS02001793JiankangQianchi        3.39      3.39      4.86      0.01         0.01
  YS02001757CaochengTiaoxuchi        4.62      4.62      5.64      0.01         0.01
  
  
  ***************
  Pumping Summary
  ***************
  
  ---------------------------------------------------------------------------------------------------------
                                                  Min       Avg       Max     Total     Power    % Time Off
                        Percent   Number of      Flow      Flow      Flow    Volume     Usage    Pump Curve
  Pump                 Utilized   Start-Ups       LPS       LPS       LPS  10^6 ltr     Kw-hr    Low   High
  ---------------------------------------------------------------------------------------------------------
  CC-Pump-1               13.90           4      0.00    112.71    200.00     0.429      0.50    0.0    8.2
  CC-Pump-2               37.31           8      0.00    123.93    200.00     1.209      1.37    0.0   14.5
  JK-Pump-1               57.44           8      0.00    167.03    300.00     1.997     21.85    0.0    0.0
  JK-Pump-2               36.16           5      0.00    130.71    299.96     0.921      7.38    0.0    0.0
  XR-Pump-1               70.22           8      0.00     60.91     95.00     1.226      7.99    0.0    0.0
  XR-Pump-2               40.42           7      0.00     68.75     95.00     0.713      3.56    0.0    0.0
  XR-Pump-3               53.17           8      0.00     65.89     95.00     0.940      4.97    0.0    0.0
  XR-Pump-4               34.05           5      0.00     56.55     95.00     0.542      4.16    0.0    0.0
  

  Analysis begun on:  Wed Jan  5 15:43:30 2022
  Analysis ended on:  Wed Jan  5 15:43:33 2022
  Total elapsed time: 00:00:03