
  EPA STORM WATER MANAGEMENT MODEL - VERSION 5.1 (Build 5.3.0.dev0)
  --------------------------------------------------------------

  WARNING 04: minimum elevation drop used for Conduit WS02004404WS02004405
  WARNING 03: negative offset ignored for Link YS02001904YS02001907
  
  *********************************************************
  NOTE: The summary statistics displayed in this report are
  based on results found at every computational time step,  
  not just on results from each reporting time step.
  *********************************************************
  
  ****************
  Analysis Options
  ****************
  Flow Units ............... LPS
  Process Models:
    Rainfall/Runoff ........ YES
    RDII ................... NO
    Snowmelt ............... NO
    Groundwater ............ NO
    Flow Routing ........... YES
    Ponding Allowed ........ NO
    Water Quality .......... NO
  Infiltration Method ...... HORTON
  Flow Routing Method ...... DYNWAVE
  Surcharge Method ......... EXTRAN
  Starting Date ............ 08/28/2015 08:00:00
  Ending Date .............. 08/28/2015 15:50:00
  Antecedent Dry Days ...... 8.0
  Report Time Step ......... 00:01:00
  Wet Time Step ............ 00:01:00
  Dry Time Step ............ 00:01:00
  Routing Time Step ........ 5.00 sec
  Variable Time Step ....... YES
  Maximum Trials ........... 8
  Number of Threads ........ 4
  Head Tolerance ........... 0.001500 m
  
  
  **************************        Volume         Depth
  Runoff Quantity Continuity     hectare-m            mm
  **************************     ---------       -------
  Total Precipitation ......         4.854        10.627
  Evaporation Loss .........         0.000         0.000
  Infiltration Loss ........         1.246         2.727
  Surface Runoff ...........         2.607         5.707
  Final Storage ............         1.002         2.194
  Continuity Error (%) .....        -0.015
  
  
  **************************        Volume        Volume
  Flow Routing Continuity        hectare-m      10^6 ltr
  **************************     ---------     ---------
  Dry Weather Inflow .......         0.616         6.165
  Wet Weather Inflow .......         2.606        26.059
  Groundwater Inflow .......         0.000         0.000
  RDII Inflow ..............         0.000         0.000
  External Inflow ..........         0.102         1.024
  External Outflow .........         1.081        10.806
  Flooding Loss ............         1.710        17.105
  Evaporation Loss .........         0.000         0.000
  Exfiltration Loss ........         0.000         0.000
  Initial Stored Volume ....         0.076         0.761
  Final Stored Volume ......         0.637         6.369
  Continuity Error (%) .....        -0.802
  
  
  *************************
  Highest Continuity Errors
  *************************
  Node HS02004842 (17.68%)
  Node YS02001884 (12.49%)
  Node YSB1171 (3.62%)
  Node HS02004817 (3.28%)
  Node YS02001774 (2.97%)
  
  
  ***************************
  Time-Step Critical Elements
  ***************************
  Link WS02006252WS02006251 (44.23%)
  Link 3 (40.35%)
  Link WS02006280WS02006229 (5.78%)
  Link YS02006556YS02006558 (2.38%)
  Link WS02006238WS02006235 (1.72%)
  
  
  ********************************
  Highest Flow Instability Indexes
  ********************************
  Link WS02006113WS02006111 (57)
  Link YS02163301YS02001633 (38)
  Link YS02163601YS02164001 (37)
  Link YS02001629YS02163301 (36)
  Link YS02001619YS02001622 (36)
  
  
  *************************
  Routing Time Step Summary
  *************************
  Minimum Time Step           :     0.50 sec
  Average Time Step           :     1.03 sec
  Maximum Time Step           :     5.00 sec
  Percent in Steady State     :    -0.00
  Average Iterations per Step :     4.33
  Percent Not Converging      :    19.35
  
  
  ***************************
  Subcatchment Runoff Summary
  ***************************
  
  ------------------------------------------------------------------------------------------------------------------------------
                            Total      Total      Total      Total     Imperv       Perv      Total       Total     Peak  Runoff
                           Precip      Runon       Evap      Infil     Runoff     Runoff     Runoff      Runoff   Runoff   Coeff
  Subcatchment                 mm         mm         mm         mm         mm         mm         mm    10^6 ltr      LPS
  ------------------------------------------------------------------------------------------------------------------------------
  sub0                      10.63       0.00       0.00       0.74       8.62       0.00       8.62        0.01     1.33   0.811
  sub1                      10.63       0.00       0.00       1.17       8.20       0.00       8.20        0.05     9.09   0.772
  sub2                      10.63       0.00       0.00       3.93       5.79       0.00       5.79        0.05     8.42   0.544
  sub3                      10.63       0.00       0.00       3.93       5.75       0.00       5.75        0.13    19.27   0.541
  sub4                      10.63       0.00       0.00       1.17       8.05       0.00       8.05        0.17    23.93   0.757
  sub5                      10.63       0.00       0.00       0.74       8.57       0.00       8.57        0.10    16.17   0.806
  sub7                      10.63       0.00       0.00       0.96       8.41       0.00       8.41        0.03     5.13   0.792
  sub8                      10.63       0.00       0.00       0.96       8.41       0.00       8.41        0.05     9.46   0.791
  sub9                      10.63       0.00       0.00       0.96       8.40       0.00       8.40        0.04     7.08   0.791
  sub10                     10.63       0.00       0.00       0.85       8.48       0.00       8.48        0.09    15.87   0.798
  sub11                     10.63       0.00       0.00       0.85       8.50       0.00       8.50        0.10    17.56   0.800
  sub12                     10.63       0.00       0.00       1.38       8.06       0.00       8.06        0.07    13.15   0.758
  sub14                     10.63       0.00       0.00       0.96       8.40       0.00       8.40        0.08    13.93   0.791
  sub15                     10.63       0.00       0.00       3.19       6.46       0.00       6.46        0.11    19.14   0.608
  sub16                     10.63       0.00       0.00       3.51       6.20       0.00       6.20        0.06    12.01   0.584
  sub17                     10.63       0.00       0.00       3.40       6.29       0.00       6.29        0.05     9.91   0.592
  sub22                     10.63       0.00       0.00       4.57       5.27       0.00       5.27        0.33    59.53   0.496
  sub23                     10.63       0.00       0.00       3.93       5.82       0.00       5.82        0.28    50.05   0.548
  sub60                     10.63       0.00       0.00       1.28       6.54       0.00       6.54        1.98   196.13   0.615
  sub61                     10.63       0.00       0.00       1.81       6.69       0.00       6.69        2.06   224.83   0.630
  sub62                     10.63       0.00       0.00       0.85       7.26       0.00       7.26        2.23   236.97   0.684
  sub63                     10.63       0.00       0.00       3.08       5.87       0.00       5.87        1.78   199.96   0.553
  sub64                     10.63       0.00       0.00       1.59       6.27       0.00       6.27        1.91   187.22   0.590
  sub65                     10.63       0.00       0.00       1.38       6.37       0.00       6.37        1.96   190.91   0.599
  sub66                     10.63       0.00       0.00       3.08       5.39       0.00       5.39        1.65   167.73   0.507
  sub67                     10.63       0.00       0.00       0.85       7.71       0.00       7.71        2.38   272.25   0.726
  sub68                     10.63       0.00       0.00       1.49       7.05       0.00       7.05        2.17   241.26   0.664
  sub69                     10.63       0.00       0.00       1.59       7.35       0.00       7.35        1.72   204.41   0.692
  sub70                     10.63       7.50       0.00       6.16       9.71       0.01       9.71        2.22   229.02   0.536
  sub71                     10.63       0.00       0.00       0.85       7.06       0.00       7.06        1.67   170.86   0.664
  sub72                     10.63       0.00       0.00       0.74       5.52       0.00       5.52        1.12    91.59   0.519
  sub73                     10.63       9.45       0.00       6.83      10.48       0.00      10.49        2.46   215.21   0.522
  sub74                     10.63       0.00       0.00       7.97       2.19       0.00       2.19        0.88   108.49   0.206
  
  
  ******************
  Node Depth Summary
  ******************
  
  ---------------------------------------------------------------------------------
                                 Average  Maximum  Maximum  Time of Max    Reported
                                   Depth    Depth      HGL   Occurrence   Max Depth
  Node                 Type       Meters   Meters   Meters  days hr:min      Meters
  ---------------------------------------------------------------------------------
  WS02001211           JUNCTION     0.50     0.73     5.57     0  04:41        0.73
  WS02001212           JUNCTION     0.25     0.44     5.50     0  04:42        0.44
  WS02001213           JUNCTION     0.49     0.68     5.44     0  04:43        0.68
  WS02003069           JUNCTION     0.33     0.49     5.08     0  02:33        0.49
  WS02003072           JUNCTION     0.40     0.56     4.93     0  02:34        0.56
  WS02003073           JUNCTION     0.24     0.34     4.40     0  02:34        0.34
  WS02003060           JUNCTION     0.30     0.44     5.37     0  02:32        0.44
  WS02003066           JUNCTION     0.21     0.29     5.84     0  02:32        0.29
  WS02003059           JUNCTION     0.56     0.73     5.42     0  04:43        0.73
  WS02003067           JUNCTION     0.53     0.68     6.00     0  02:32        0.68
  WS02004401           JUNCTION     0.61     0.82     6.82     0  02:28        0.82
  WS02004402           JUNCTION     0.64     0.85     6.81     0  02:28        0.85
  WS02004403           JUNCTION     0.66     0.87     6.80     0  02:28        0.87
  WS02004404           JUNCTION     0.74     0.94     6.79     0  02:28        0.94
  WS02004406           JUNCTION     0.75     0.94     6.77     0  02:29        0.94
  WS02004409           JUNCTION     0.43     0.64     6.41     0  02:31        0.64
  WS02004410           JUNCTION     0.45     0.65     6.37     0  02:31        0.65
  WS02004411           JUNCTION     0.47     0.67     6.35     0  02:31        0.67
  WS02004412           JUNCTION     0.49     0.67     6.31     0  02:31        0.67
  WS02004413           JUNCTION     0.65     0.84     6.31     0  02:32        0.84
  WS02004405           JUNCTION     0.74     0.93     6.78     0  02:28        0.93
  WS02006109           JUNCTION     0.68     0.93     7.55     0  02:25        0.93
  WS02006110           JUNCTION     0.69     0.90     7.48     0  02:25        0.90
  WS02006111           JUNCTION     0.19     0.28     6.98     0  02:26        0.28
  WS02006112           JUNCTION     0.77     1.02     6.90     0  02:28        1.01
  WS02006113           JUNCTION     0.30     0.44     7.33     0  02:25        0.44
  WS02006115           JUNCTION     0.50     0.72     6.86     0  02:28        0.72
  WS02006116           JUNCTION     0.58     0.80     6.84     0  02:28        0.80
  WS02006230           JUNCTION     0.62     0.95     7.69     0  02:25        0.95
  WS02006231           JUNCTION     0.40     0.61     7.73     0  02:25        0.61
  WS02006232           JUNCTION     0.52     0.73     7.77     0  03:34        0.73
  WS02006234           JUNCTION     0.43     0.67     7.83     0  03:34        0.67
  WS02006235           JUNCTION     0.45     0.71     7.87     0  03:34        0.71
  WS02006238           JUNCTION     0.48     0.74     7.88     0  03:35        0.73
  WS02006240           JUNCTION     0.36     0.66     7.95     0  03:34        0.66
  WS02006242           JUNCTION     0.41     0.72     7.99     0  03:34        0.72
  WS02006243           JUNCTION     0.29     0.61     8.03     0  03:35        0.61
  WS02006245           JUNCTION     0.27     0.58     8.06     0  03:34        0.58
  WS02006247           JUNCTION     0.29     0.59     8.09     0  03:34        0.59
  WS02006248           JUNCTION     0.25     0.53     8.12     0  03:32        0.53
  WS02006249           JUNCTION     0.28     0.56     8.16     0  03:31        0.56
  WS02006239           JUNCTION     0.42     0.71     7.92     0  03:35        0.71
  WS02006251           JUNCTION     0.27     0.59     8.26     0  03:30        0.59
  WS02006252           JUNCTION     0.24     0.59     8.83     0  03:29        0.58
  WS02006253           JUNCTION     0.30     0.62     8.26     0  03:30        0.61
  WS02006256           JUNCTION     0.93     1.20     8.13     0  05:10        1.20
  WS02004138           JUNCTION     0.08     0.19     7.44     0  04:40        0.19
  WS02004407           JUNCTION     0.19     0.29     6.60     0  02:29        0.29
  WS02006228           JUNCTION     0.67     0.96     7.61     0  02:24        0.96
  WS02006229           JUNCTION     0.64     0.96     7.65     0  02:24        0.96
  WS02006280           JUNCTION     0.06     0.16     8.43     0  01:50        0.16
  WS02006284           JUNCTION     0.36     0.50     8.90     0  01:50        0.50
  WS02006287           JUNCTION     0.09     0.23     9.19     0  01:50        0.23
  WSF200               JUNCTION     0.19     0.29     5.53     0  02:32        0.29
  HS02004901           JUNCTION     0.12     0.24    10.06     0  01:47        0.24
  HS02004881           JUNCTION     0.01     0.03     9.06     0  01:50        0.03
  HS02004876           JUNCTION     0.04     0.11     9.14     0  01:47        0.11
  HS02004870           JUNCTION     0.01     0.05     9.33     0  01:50        0.05
  HS02004862           JUNCTION     0.02     0.05     9.44     0  01:51        0.05
  HS02004856           JUNCTION     0.08     0.11     9.54     0  01:51        0.11
  HS02004852           JUNCTION     0.01     0.03     9.54     0  01:52        0.03
  HS02004848           JUNCTION     0.01     0.03     9.63     0  01:51        0.03
  HS02004842           JUNCTION     0.33     0.36     9.63     0  01:51        0.36
  HS02004837           JUNCTION     0.03     0.05     9.63     0  01:51        0.05
  HS02004830           JUNCTION     0.04     0.07     9.54     0  01:51        0.07
  HS02004824           JUNCTION     0.02     0.05     9.45     0  02:16        0.05
  HS02004817           JUNCTION     0.43     0.54     9.39     0  01:51        0.54
  HS02004807           JUNCTION     0.12     0.22     9.39     0  01:51        0.22
  HS02004802           JUNCTION     0.16     0.25     9.38     0  01:51        0.25
  HS02004799           JUNCTION     0.11     0.28     9.49     0  01:48        0.28
  HS02004792           JUNCTION     0.03     0.11     9.63     0  01:47        0.11
  HS02004788           JUNCTION     0.02     0.08     9.98     0  01:48        0.08
  HS02004785           JUNCTION     0.04     0.14    10.04     0  01:48        0.14
  HS02004777           JUNCTION     0.14     0.26    10.06     0  01:47        0.26
  HS02004770           JUNCTION     0.11     0.23    10.06     0  01:47        0.23
  HS02004480           JUNCTION     0.08     0.21     9.46     0  01:48        0.21
  HS02004479           JUNCTION     0.11     0.25     9.46     0  01:48        0.25
  HS02004478           JUNCTION     0.06     0.14     9.37     0  01:49        0.14
  YS02001745           JUNCTION     0.69     0.89     8.41     0  03:06        0.88
  YS02001748           JUNCTION     1.08     1.38     8.46     0  02:34        1.32
  YS02001751           JUNCTION     1.26     1.74     8.62     0  02:24        1.52
  YS02001754           JUNCTION     1.52     1.81     8.42     0  03:05        1.79
  YS02001762           JUNCTION     1.72     2.02     8.42     0  03:35        2.01
  YS02001765           JUNCTION     1.67     1.97     8.42     0  03:38        1.96
  YS02001767           JUNCTION     1.63     1.92     8.41     0  03:34        1.91
  YS02001770           JUNCTION     1.63     1.90     8.40     0  03:05        1.90
  YS02001774           JUNCTION     1.70     1.97     8.39     0  03:26        1.96
  YS02001779           JUNCTION     1.45     1.68     8.37     0  02:42        1.68
  YS02001882           JUNCTION     0.39     0.84     7.56     0  03:02        0.84
  YS02001884           JUNCTION     0.48     0.94     7.56     0  03:02        0.94
  YS02001759           JUNCTION     1.75     2.06     8.43     0  03:36        2.04
  YS02001887           JUNCTION     0.56     1.02     7.56     0  03:02        1.02
  YS02001890           JUNCTION     0.59     1.05     7.56     0  03:03        1.05
  YS02001898           JUNCTION     0.36     0.81     7.55     0  03:03        0.81
  YS02001901           JUNCTION     0.48     0.94     7.55     0  03:03        0.94
  YS02001904           JUNCTION     0.46     0.91     7.54     0  03:03        0.91
  YS02001907           JUNCTION     0.79     1.26     7.55     0  03:02        1.26
  YS02001910           JUNCTION     0.58     1.04     7.55     0  03:03        1.04
  YS02001915           JUNCTION     0.38     0.83     7.55     0  03:03        0.83
  YS02001918           JUNCTION     0.14     0.48     7.55     0  03:03        0.48
  YS02001619           JUNCTION     1.23     1.61     8.54     0  02:25        1.47
  YS02001629           JUNCTION     1.58     1.85     8.40     0  02:29        1.84
  YS02001641           JUNCTION     1.68     1.93     8.37     0  02:59        1.93
  YS02001644           JUNCTION     1.68     1.92     8.35     0  02:41        1.92
  YS02001652           JUNCTION     1.53     2.16     8.76     0  02:18        1.89
  YS02001655           JUNCTION     1.29     2.20     9.05     0  02:17        1.71
  YS02001920           JUNCTION     0.24     0.55     7.56     0  03:03        0.54
  YS02001923           JUNCTION     0.10     0.29     7.55     0  03:03        0.29
  YS02001926           JUNCTION     0.19     0.26     7.71     0  03:01        0.26
  YS02001929           JUNCTION     0.10     0.14     7.84     0  03:01        0.14
  YS02001658           JUNCTION     1.03     2.30     9.44     0  02:27        1.52
  YS02001661           JUNCTION     0.80     1.99     9.39     0  03:34        1.38
  YS02001664           JUNCTION     0.35     0.58     8.50     0  03:48        0.57
  YS02001622           JUNCTION     1.25     1.62     8.52     0  02:27        1.49
  YS02001633           JUNCTION     1.67     1.94     8.39     0  03:01        1.93
  YS02001649           JUNCTION     1.72     2.05     8.44     0  02:57        2.03
  YS02001757           JUNCTION     1.85     2.17     8.43     0  03:01        2.15
  YS02001895           JUNCTION     0.36     0.80     7.55     0  03:03        0.80
  YS02001625           JUNCTION     1.53     1.78     8.38     0  02:29        1.78
  YS02163301           JUNCTION     1.61     1.88     8.40     0  02:33        1.87
  YS02163601           JUNCTION     1.72     1.98     8.38     0  02:42        1.98
  YS02164001           JUNCTION     1.66     1.91     8.37     0  02:58        1.91
  YS02001647           JUNCTION     1.52     1.80     8.41     0  03:36        1.78
  YSB1154              JUNCTION     0.25     0.40     9.46     0  01:48        0.40
  YSB6556              JUNCTION     0.14     0.29     9.46     0  01:49        0.29
  YSB1174              JUNCTION     0.20     0.35     9.46     0  01:49        0.35
  YSB1171              JUNCTION     0.40     0.55     9.46     0  01:48        0.55
  YS02006553           JUNCTION     0.79     1.26     7.54     0  03:04        1.26
  YS02006561           JUNCTION     0.21     0.56     7.22     0  03:03        0.56
  YS02006556           JUNCTION     0.76     1.21     7.52     0  03:03        1.21
  YS02006558           JUNCTION     0.80     1.25     7.52     0  03:02        1.25
  YS02001783           JUNCTION     0.45     1.08     7.22     0  03:03        1.07
  YS02001784           JUNCTION     0.48     1.07     7.14     0  03:02        1.07
  YS02001786           JUNCTION     0.46     0.99     7.02     0  03:02        0.98
  YS02001788           JUNCTION     0.43     0.94     6.91     0  03:02        0.93
  YS02001790           JUNCTION     0.58     1.17     6.81     0  03:02        1.16
  YS02001791           JUNCTION     0.61     1.55     7.02     0  02:02        1.22
  YS02001793           JUNCTION     0.89     2.06     6.89     0  01:58        1.79
  WS02004139           JUNCTION     0.43     0.67     5.58     0  04:41        0.67
  WSC                  OUTFALL      0.23     0.34     1.01     0  02:35        0.34
  3                    OUTFALL      0.06     0.20     6.20     0  05:10        0.20
  4                    OUTFALL      0.00     0.06     7.06     0  03:31        0.06
  5                    OUTFALL      0.00     0.00     5.00     0  00:00        0.00
  JK-storage           STORAGE      3.24     5.80     6.60     0  02:04        5.80
  CC-storage           STORAGE      1.10     1.40     8.40     0  03:05        1.40
  XR-storage           STORAGE      7.64     7.72     5.72     0  00:56        7.72
  
  
  *******************
  Node Inflow Summary
  *******************
  
  -------------------------------------------------------------------------------------------------
                                  Maximum  Maximum                  Lateral       Total        Flow
                                  Lateral    Total  Time of Max      Inflow      Inflow     Balance
                                   Inflow   Inflow   Occurrence      Volume      Volume       Error
  Node                 Type           LPS      LPS  days hr:min    10^6 ltr    10^6 ltr     Percent
  -------------------------------------------------------------------------------------------------
  WS02001211           JUNCTION      7.35   360.33     0  04:40       0.207        2.74       0.827
  WS02001212           JUNCTION      0.00   342.43     0  04:41           0        2.72       0.450
  WS02001213           JUNCTION      0.00   336.17     0  04:41           0        2.72       0.566
  WS02003069           JUNCTION      0.32   702.83     0  02:33     0.00902        9.18       0.216
  WS02003072           JUNCTION      0.00   702.59     0  02:33           0        9.16       0.287
  WS02003073           JUNCTION      1.82   704.27     0  02:34      0.0514        9.19       0.304
  WS02003060           JUNCTION     16.53   702.55     0  02:32       0.466        9.22       0.208
  WS02003066           JUNCTION      0.00   497.35     0  02:32           0        6.09       0.061
  WS02003059           JUNCTION      0.00   330.80     0  04:42           0        2.72       1.074
  WS02003067           JUNCTION      0.00   497.28     0  02:32           0        6.09       0.133
  WS02004401           JUNCTION      0.00   504.00     0  02:27           0        6.29       0.283
  WS02004402           JUNCTION      0.00   502.79     0  02:27           0        6.27       0.273
  WS02004403           JUNCTION      0.00   502.48     0  02:28           0        6.26       0.253
  WS02004404           JUNCTION      0.16   502.35     0  02:28     0.00457        6.24       0.196
  WS02004406           JUNCTION      0.00   502.32     0  02:28           0        6.21       0.480
  WS02004409           JUNCTION      0.00   502.17     0  02:29           0        6.18       0.203
  WS02004410           JUNCTION      0.00   500.31     0  02:30           0        6.17       0.239
  WS02004411           JUNCTION      0.00   498.86     0  02:30           0        6.15       0.252
  WS02004412           JUNCTION      0.00   498.02     0  02:31           0        6.14       0.281
  WS02004413           JUNCTION      0.00   497.51     0  02:31           0        6.12       0.430
  WS02004405           JUNCTION      0.04   502.32     0  02:28     0.00107        6.23       0.294
  WS02006109           JUNCTION      1.23   503.46     0  02:25      0.0347        6.33       0.195
  WS02006110           JUNCTION      0.00   503.46     0  02:25           0        6.32       0.256
  WS02006111           JUNCTION      0.00   520.77     0  02:25           0        6.29       0.046
  WS02006112           JUNCTION      9.91   512.65     0  02:26       0.054        6.35       0.402
  WS02006113           JUNCTION      0.00   503.42     0  02:25           0         6.3       0.097
  WS02006115           JUNCTION      0.00   513.18     0  02:26           0        6.32       0.252
  WS02006116           JUNCTION      0.00   506.61     0  02:26           0         6.3       0.221
  WS02006230           JUNCTION     10.28   381.18     0  06:13        0.29        4.67       0.161
  WS02006231           JUNCTION      0.00   374.72     0  03:32           0        4.39       0.183
  WS02006232           JUNCTION      0.00   375.39     0  03:32           0         4.4       0.253
  WS02006234           JUNCTION      0.00   380.15     0  03:32           0        4.41       0.071
  WS02006235           JUNCTION      0.00   382.63     0  03:32           0        4.45       0.169
  WS02006238           JUNCTION      0.00   302.38     0  03:39           0        2.49       0.091
  WS02006240           JUNCTION      0.00   315.14     0  03:31           0        2.46       0.166
  WS02006242           JUNCTION      0.00   327.29     0  03:31           0        2.45       0.189
  WS02006243           JUNCTION      0.00   337.30     0  03:31           0        2.42      -0.653
  WS02006245           JUNCTION      0.00   345.61     0  03:31           0        2.43       0.422
  WS02006247           JUNCTION      0.00   352.06     0  03:30           0        2.43       0.041
  WS02006248           JUNCTION      0.00   357.19     0  03:30           0        2.43      -0.167
  WS02006249           JUNCTION      0.00   397.73     0  03:30           0        2.45       0.317
  WS02006239           JUNCTION      0.00   303.86     0  03:32           0        2.47       0.101
  WS02006251           JUNCTION      0.08   400.23     0  03:30     0.00217        2.48      -0.028
  WS02006252           JUNCTION      0.00   399.89     0  03:30           0        2.14       0.004
  WS02006253           JUNCTION      1.33    52.77     0  01:41     0.00698       0.333       0.068
  WS02006256           JUNCTION      0.00   599.90     0  05:10           0        3.62       0.064
  WS02004138           JUNCTION      0.00   379.87     0  04:40           0        2.54       0.098
  WS02004407           JUNCTION      0.00   502.24     0  02:29           0        6.19       0.090
  WS02006228           JUNCTION      0.00   502.23     0  02:25           0         6.3       0.158
  WS02006229           JUNCTION      0.00   502.20     0  02:25           0        6.32       0.173
  WS02006280           JUNCTION      0.00   250.78     0  01:50           0        1.65       0.004
  WS02006284           JUNCTION      0.10   250.80     0  01:50      0.0027        1.65       0.062
  WS02006287           JUNCTION      0.00   250.71     0  01:50           0        1.65       0.044
  WSF200               JUNCTION      0.00   497.38     0  02:32           0        6.08       0.053
  HS02004901           JUNCTION     12.01    12.01     0  01:45      0.0649      0.0651       2.777
  HS02004881           JUNCTION      5.13    49.91     0  01:49      0.0283       0.303       0.047
  HS02004876           JUNCTION      9.09    44.89     0  01:50      0.0545       0.275       0.197
  HS02004870           JUNCTION      9.46    35.91     0  01:50      0.0537       0.221       0.049
  HS02004862           JUNCTION      8.62    26.77     0  01:51      0.0595       0.167       0.103
  HS02004856           JUNCTION      7.08    18.20     0  01:50      0.0404       0.109       1.339
  HS02004852           JUNCTION      0.00    11.37     0  01:51           0      0.0688       0.079
  HS02004848           JUNCTION     19.27    19.27     0  02:15       0.129       0.129       0.035
  HS02004842           JUNCTION      0.00     7.96     0  02:16           0      0.0736      21.476
  HS02004837           JUNCTION     22.22    28.76     0  01:50       0.273       0.333       0.243
  HS02004830           JUNCTION      0.15    28.90     0  01:51     0.00423       0.324       0.383
  HS02004824           JUNCTION     23.98    52.78     0  02:16       0.169       0.492       0.110
  HS02004817           JUNCTION      0.60    53.38     0  02:16      0.0169       0.508       3.394
  HS02004807           JUNCTION     17.56    68.44     0  02:16      0.0987        0.59       0.739
  HS02004802           JUNCTION      0.00    68.45     0  02:16           0       0.587       0.677
  HS02004799           JUNCTION     13.93   155.61     0  01:47      0.0799       0.915       0.289
  HS02004792           JUNCTION     59.81   141.74     0  01:47       0.341       0.835       0.049
  HS02004788           JUNCTION     20.81    82.40     0  01:48       0.158       0.496       0.079
  HS02004785           JUNCTION      0.15    61.69     0  01:47     0.00423       0.339       0.145
  HS02004777           JUNCTION      0.03    61.69     0  01:46    0.000846        0.34       1.552
  HS02004770           JUNCTION     50.05    61.90     0  01:46       0.278       0.341       0.915
  HS02004480           JUNCTION      0.00   184.53     0  01:48           0        1.08       0.104
  HS02004479           JUNCTION      0.00    29.01     0  01:50           0       0.176       0.418
  HS02004478           JUNCTION      0.00   250.68     0  01:49           0        1.65       0.021
  YS02001745           JUNCTION    196.14   316.54     0  02:32        1.98        1.99       0.578
  YS02001748           JUNCTION      0.04   467.19     0  02:32     0.00127        1.99       1.137
  YS02001751           JUNCTION      0.01   399.56     0  02:15     0.00031        1.95       1.223
  YS02001754           JUNCTION      0.26   209.76     0  02:21     0.00733        1.93       1.286
  YS02001762           JUNCTION      0.00   233.70     0  02:36           0        1.74       1.228
  YS02001765           JUNCTION      0.00   231.06     0  02:36           0        1.74       1.414
  YS02001767           JUNCTION      0.54   228.95     0  02:36      0.0151        1.76       2.049
  YS02001770           JUNCTION    237.12   364.19     0  03:10        2.24        2.43       1.305
  YS02001774           JUNCTION      0.00   365.44     0  03:11           0       0.842       3.057
  YS02001779           JUNCTION      0.01   364.89     0  03:11    0.000141       0.809       1.966
  YS02001882           JUNCTION      0.00     6.72     0  02:43           0      0.0129      19.106
  YS02001884           JUNCTION      0.00    14.19     0  01:36           0      0.0457      14.273
  YS02001759           JUNCTION    224.87   444.87     0  02:43        2.06        3.59       0.643
  YS02001887           JUNCTION    272.70   272.70     0  02:58        2.39        2.42       0.334
  YS02001890           JUNCTION      0.00   267.81     0  02:59           0        2.38       0.370
  YS02001898           JUNCTION      0.00   264.62     0  03:01           0        2.36       0.117
  YS02001901           JUNCTION      0.00   262.60     0  03:01           0        2.36       0.276
  YS02001904           JUNCTION      0.00   261.97     0  03:02           0        2.36       0.251
  YS02001907           JUNCTION      0.00   527.74     0  03:05           0        5.21       0.459
  YS02001910           JUNCTION      0.00   267.76     0  03:08           0        2.86       0.396
  YS02001915           JUNCTION    170.88   264.03     0  03:05        1.67        2.86       0.195
  YS02001918           JUNCTION      0.00   106.15     0  03:15           0         1.2       0.142
  YS02001619           JUNCTION    167.73   167.73     0  03:01        1.65        1.65       0.741
  YS02001629           JUNCTION      0.00   231.48     0  02:16           0        1.57       1.825
  YS02001641           JUNCTION      0.00   352.99     0  02:59           0        3.43       0.619
  YS02001644           JUNCTION    187.26  1036.66     0  03:06        1.91        7.74       0.350
  YS02001652           JUNCTION      0.00   263.37     0  02:24           0        1.73       1.374
  YS02001655           JUNCTION      0.15   414.50     0  02:18     0.00434        1.76       1.273
  YS02001920           JUNCTION      2.87   104.09     0  03:03      0.0809         1.2       0.227
  YS02001923           JUNCTION      0.04    91.49     0  03:01     0.00106        1.12       0.043
  YS02001926           JUNCTION      0.05    91.60     0  03:01     0.00147        1.12       0.282
  YS02001929           JUNCTION     91.59    91.59     0  03:01        1.12        1.12       0.041
  YS02001658           JUNCTION      0.00   610.92     0  02:27           0        1.82       1.215
  YS02001661           JUNCTION      0.00   495.00     0  02:56           0        2.39      -0.188
  YS02001664           JUNCTION    199.96   337.59     0  03:33        1.78        2.35       0.288
  YS02001622           JUNCTION      0.00   170.04     0  02:16           0        1.64       1.960
  YS02001633           JUNCTION    191.11   352.02     0  02:59        1.96        3.49       0.920
  YS02001649           JUNCTION      0.00   677.07     0  02:35           0        4.84       0.780
  YS02001757           JUNCTION      0.00  1280.81     0  02:42           0        7.87       1.186
  YS02001895           JUNCTION      0.00   267.17     0  03:01           0        2.37       0.200
  YS02001625           JUNCTION      0.00   231.41     0  02:16           0        1.61       2.457
  YS02163301           JUNCTION      0.00   190.59     0  02:26           0        1.55       1.567
  YS02163601           JUNCTION      0.11   352.02     0  02:59      0.0031        3.45       0.873
  YS02164001           JUNCTION      0.00   352.46     0  02:58           0        3.43       0.593
  YS02001647           JUNCTION      0.00   524.21     0  03:09           0        4.05       0.699
  YSB1154              JUNCTION     16.17    16.17     0  01:48      0.0971      0.0979       1.500
  YSB6556              JUNCTION      0.00    16.24     0  01:49           0      0.0986       1.284
  YSB1174              JUNCTION     13.15    13.15     0  01:45      0.0704      0.0709       1.844
  YSB1171              JUNCTION      0.00    29.31     0  01:48           0       0.175       3.754
  YS02006553           JUNCTION      0.00   529.34     0  03:05           0         5.2       0.290
  YS02006561           JUNCTION      0.00   753.42     0  03:03           0        7.33       0.007
  YS02006556           JUNCTION      0.00   529.63     0  03:07           0         5.2       0.211
  YS02006558           JUNCTION    242.14   754.53     0  03:02        2.19        7.36       0.071
  YS02001783           JUNCTION      0.00   753.60     0  03:03           0        7.33       0.029
  YS02001784           JUNCTION      1.06   754.73     0  03:02      0.0299        7.36       0.044
  YS02001786           JUNCTION      0.06   754.58     0  03:02     0.00159        7.36       0.041
  YS02001788           JUNCTION      0.07   754.84     0  03:02       0.002        7.36       0.024
  YS02001790           JUNCTION      0.15   754.74     0  03:03     0.00437        7.36       0.031
  YS02001791           JUNCTION      0.00   754.78     0  03:03           0        7.36       0.015
  YS02001793           JUNCTION      0.00   755.47     0  03:02           0        7.36      -0.001
  WS02004139           JUNCTION      0.32   377.87     0  04:40     0.00905        2.55       0.987
  WSC                  OUTFALL       0.00   703.99     0  02:35           0        9.16       0.000
  3                    OUTFALL       0.00   478.83     0  05:10           0        1.63       0.000
  4                    OUTFALL       0.00    39.86     0  03:31           0       0.018       0.000
  5                    OUTFALL       0.00     0.00     0  00:00           0           0       0.000 ltr
  JK-storage           STORAGE       0.00   886.96     0  01:57           0        7.51      -2.878
  CC-storage           STORAGE       0.00  1280.83     0  02:42           0        6.22       0.681
  XR-storage           STORAGE     519.52   519.52     0  03:01        8.98        9.58       0.002
  
  
  **********************
  Node Surcharge Summary
  **********************
  
  Surcharging occurs when water rises above the top of the highest conduit.
  ---------------------------------------------------------------------
                                               Max. Height   Min. Depth
                                   Hours       Above Crown    Below Rim
  Node                 Type      Surcharged         Meters       Meters
  ---------------------------------------------------------------------
  WS02006109           JUNCTION        0.84          0.113        1.707
  WS02006112           JUNCTION        0.10          0.015        1.665
  WS02006232           JUNCTION        0.24          0.032        1.448
  WS02006238           JUNCTION        0.07          0.015        1.415
  WS02006252           JUNCTION        0.36          0.190        0.910
  WS02006228           JUNCTION        0.83          0.132        2.068
  YS02001748           JUNCTION        5.21          0.305        0.885
  YS02001751           JUNCTION        5.44          0.744        0.456
  YS02001754           JUNCTION        5.73          0.764        0.386
  YS02001762           JUNCTION        5.94          1.023        0.127
  YS02001765           JUNCTION        5.92          0.970        0.130
  YS02001767           JUNCTION        5.90          0.924        0.106
  YS02001770           JUNCTION        5.88          0.875        0.045
  YS02001774           JUNCTION        5.93          0.971        0.079
  YS02001779           JUNCTION        5.68          0.680        0.000
  YS02001759           JUNCTION        5.97          1.061        0.149
  YS02001890           JUNCTION        0.01          0.001        0.759
  YS02001907           JUNCTION        1.28          0.249        0.701
  YS02001910           JUNCTION        0.21          0.040        1.060
  YS02001619           JUNCTION        5.43          0.610        0.000
  YS02001629           JUNCTION        5.46          0.470        0.000
  YS02001641           JUNCTION        5.92          0.934        0.166
  YS02001644           JUNCTION        5.93          0.920        0.000
  YS02001652           JUNCTION        5.77          1.130        0.000
  YS02001655           JUNCTION        5.48          1.200        0.000
  YS02001658           JUNCTION        5.24          1.300        0.000
  YS02001661           JUNCTION        0.14          0.916        0.474
  YS02001622           JUNCTION        5.51          0.620        0.000
  YS02001633           JUNCTION        5.91          0.920        0.140
  YS02001649           JUNCTION        5.95          1.050        0.000
  YS02001757           JUNCTION        6.03          1.165        0.045
  YS02001625           JUNCTION        5.84          0.780        0.000
  YS02163301           JUNCTION        5.88          0.878        0.152
  YS02163601           JUNCTION        5.95          0.984        0.096
  YS02164001           JUNCTION        5.92          0.912        0.188
  YS02001647           JUNCTION        5.80          0.801        0.099
  YS02006553           JUNCTION        1.35          0.257        0.933
  YS02006556           JUNCTION        0.67          0.172        1.178
  YS02006558           JUNCTION        0.59          0.152        1.248
  YS02001783           JUNCTION        1.23          0.279        1.321
  YS02001784           JUNCTION        1.34          0.275        1.215
  YS02001786           JUNCTION        1.25          0.195        1.235
  YS02001788           JUNCTION        1.20          0.135        1.345
  YS02001790           JUNCTION        3.06          0.367        0.790
  YS02001791           JUNCTION        3.10          0.752        1.168
  YS02001793           JUNCTION        3.19          1.060        1.540
  
  
  *********************
  Node Flooding Summary
  *********************
  
  Flooding refers to all water that overflows a node, whether it ponds or not.
  --------------------------------------------------------------------------
                                                             Total   Maximum
                                 Maximum   Time of Max       Flood    Ponded
                        Hours       Rate    Occurrence      Volume     Depth
  Node                 Flooded       LPS   days hr:min    10^6 ltr    Meters
  --------------------------------------------------------------------------
  YS02001779              2.53    364.51      0  03:11       0.787     0.000
  YS02001619              0.01     30.89      0  02:28       0.000     0.000
  YS02001629              0.01     33.52      0  02:31       0.000     0.000
  YS02001644              4.91   1036.36      0  03:06       6.086     0.000
  YS02001652              0.01     61.27      0  02:19       0.000     0.000
  YS02001655              0.01    275.83      0  02:20       0.001     0.000
  YS02001658              0.01    325.77      0  02:27       0.001     0.000
  YS02001622              0.01     34.43      0  02:31       0.000     0.000
  YS02001649              0.01     27.58      0  03:34       0.001     0.000
  YS02001625              0.33     23.41      0  02:33       0.004     0.000
  JK-storage              2.74    754.95      0  03:03       4.109     0.000
  XR-storage              6.65    503.13      0  02:50       6.117     0.000
  
  
  **********************
  Storage Volume Summary
  **********************
  
  --------------------------------------------------------------------------------------------------
                         Average     Avg  Evap Exfil       Maximum     Max    Time of Max    Maximum
                          Volume    Pcnt  Pcnt  Pcnt        Volume    Pcnt     Occurrence    Outflow
  Storage Unit           1000 m3    Full  Loss  Loss       1000 m3    Full    days hr:min        LPS
  --------------------------------------------------------------------------------------------------
  JK-storage               0.163      56     0     0         0.291     100       0  02:04     599.90
  CC-storage               3.065      20     0     0         3.900      25       0  03:05     399.89
  XR-storage               0.916      99     0     0         0.926     100       0  00:56     379.87
  
  
  ***********************
  Outfall Loading Summary
  ***********************
  
  -----------------------------------------------------------
                         Flow       Avg       Max       Total
                         Freq      Flow      Flow      Volume
  Outfall Node           Pcnt       LPS       LPS    10^6 ltr
  -----------------------------------------------------------
  WSC                  100.00    358.43    703.99       9.159
  3                     63.31    135.46    478.83       1.629
  4                      5.79     19.10     39.86       0.018
  5                      0.00      0.00      0.00       0.000
  -----------------------------------------------------------
  System                42.27    512.99    853.53      10.806
  
  
  ********************
  Link Flow Summary
  ********************
  
  -----------------------------------------------------------------------------
                                 Maximum  Time of Max   Maximum    Max/    Max/
                                  |Flow|   Occurrence   |Veloc|    Full    Full
  Link                 Type          LPS  days hr:min     m/sec    Flow   Depth
  -----------------------------------------------------------------------------
  WS02003066WSF200     CONDUIT    497.38     0  02:32      2.74    0.08    0.22
  WS02006287WS02006284 CONDUIT    250.71     0  01:50      1.73    0.12    0.24
  WS02006284WS02006280 CONDUIT    250.78     0  01:50      1.97    0.11    0.22
  WS02006280WS02006229 CONDUIT    250.79     0  01:50      3.17    0.05    0.16
  WS02006229WS02006228 CONDUIT    502.23     0  02:25      1.00    1.66    1.00
  WS02006256WS02006235 CONDUIT    149.95     0  00:15      2.14    1.59    1.00
  WS02006253WS02006251 CONDUIT     64.93     0  01:47      0.52    0.19    0.85
  WS02006252WS02006251 CONDUIT    400.15     0  03:30      3.18    1.47    1.00
  WS02006251WS02006249 CONDUIT    397.73     0  03:30      1.18    1.15    0.82
  WS02006249WS02006248 CONDUIT    357.19     0  03:30      1.22    1.96    0.77
  WS02006248WS02006247 CONDUIT    352.06     0  03:30      1.22    0.77    0.80
  WS02006247WS02006245 CONDUIT    345.61     0  03:31      1.19    2.74    0.83
  WS02006245WS02006243 CONDUIT    337.30     0  03:31      1.26    1.00    0.84
  WS02006243WS02006242 CONDUIT    327.29     0  03:31      1.14    0.70    0.93
  WS02006242WS02006240 CONDUIT    315.14     0  03:31      1.01    1.25    0.96
  WS02006240WS02006239 CONDUIT    303.86     0  03:32      1.11    0.96    0.95
  WS02006239WS02006238 CONDUIT    302.38     0  03:39      0.91    0.97    1.00
  WS02006238WS02006235 CONDUIT    307.40     0  03:40      0.90    0.69    1.00
  WS02006235WS02006234 CONDUIT    380.15     0  03:32      1.04    4.01    0.96
  WS02006234WS02006232 CONDUIT    375.39     0  03:32      0.99    0.76    0.98
  WS02006232WS02006231 CONDUIT    374.72     0  03:32      1.04    0.79    0.93
  WS02006231WS02006230 CONDUIT    370.90     0  06:13      1.37    5.63    0.84
  WS02006230WS02006229 CONDUIT    378.89     0  03:35      0.98    8.43    1.00
  WS02006228WS02006109 CONDUIT    502.23     0  02:25      1.00    2.19    1.00
  WS02006116WS02004401 CONDUIT    504.00     0  02:27      0.79    0.69    0.81
  WS02006115WS02006116 CONDUIT    506.61     0  02:26      0.94    0.65    0.73
  WS02006113WS02006111 CONDUIT    520.77     0  02:25      2.40    0.62    0.45
  WS02006112WS02006115 CONDUIT    513.18     0  02:26      0.72    0.30    0.86
  WS02006111WS02006112 CONDUIT    505.75     0  02:26      1.42    0.24    0.67
  WS02006110WS02006113 CONDUIT    503.42     0  02:25      1.21    0.46    0.77
  WS02006109WS02006110 CONDUIT    503.46     0  02:25      1.00    0.97    0.99
  WS02004411WS02004412 CONDUIT    498.02     0  02:31      0.89    0.71    0.67
  WS02004401WS02004402 CONDUIT    502.79     0  02:27      0.84    0.60    0.84
  WS02004413WS02003067 CONDUIT    497.28     0  02:32      1.06    0.21    0.57
  WS02004412WS02004413 CONDUIT    497.51     0  02:31      0.78    0.33    0.76
  WS02004410WS02004411 CONDUIT    498.86     0  02:30      0.91    0.68    0.66
  WS02004409WS02004410 CONDUIT    500.31     0  02:30      0.94    0.65    0.65
  WS02004407WS02004409 CONDUIT    502.17     0  02:29      1.43    0.18    0.46
  WS02004406WS02004407 CONDUIT    502.24     0  02:29      1.00    0.22    0.61
  WS02004405WS02004406 CONDUIT    502.32     0  02:28      0.76    0.99    0.94
  WS02004404WS02004405 CONDUIT    502.29     0  02:28      0.96    4.92    0.94
  WS02004403WS02004404 CONDUIT    502.19     0  02:28      0.85    0.36    0.90
  WS02004402WS02004403 CONDUIT    502.48     0  02:28      0.87    0.72    0.86
  WS02004139WS02001211 CONDUIT    352.98     0  04:40      0.69    0.45    0.54
  WS02004138WS02004139 CONDUIT    377.55     0  04:40      2.95    0.08    0.40
  WS02003067WS02003066 CONDUIT    497.35     0  02:32      1.16    0.16    0.41
  WS02001213WS02003059 CONDUIT    330.80     0  04:42      0.65    0.55    0.69
  WS02001212WS02001213 CONDUIT    336.17     0  04:41      1.18    0.52    0.40
  WS02001211WS02001212 CONDUIT    342.43     0  04:41      0.72    0.26    0.58
  WS02003072WS02003073 CONDUIT    702.45     0  02:34      1.56    1.52    0.42
  WS02003069WS02003072 CONDUIT    702.59     0  02:33      1.48    0.34    0.44
  WS02003060WS02003069 CONDUIT    702.51     0  02:33      1.74    0.28    0.39
  WS02003059WS02003060 CONDUIT    328.47     0  04:43      0.70    0.21    0.58
  HS02004901HS02004770 CONDUIT     11.86     0  01:47      0.05    0.04    0.34
  HS02004876HS02004881 CONDUIT     44.96     0  01:50      0.68    0.48    0.09
  HS02004870HS02004876 CONDUIT     35.89     0  01:50      0.47    0.02    0.11
  HS02004842HS02004848 CONDUIT      7.96     0  02:16      0.04    0.00    0.28
  HS02004837HS02004842 CONDUIT      8.06     0  02:20      0.42    0.00    0.30
  HS02004830HS02004837 CONDUIT     28.75     0  01:51      0.48    0.03    0.09
  HS02004824HS02004830 CONDUIT     28.90     0  01:52      0.51    0.04    0.08
  HS02004817HS02004824 CONDUIT     52.78     0  02:16      0.18    0.02    0.42
  HS02004770HS02004777 CONDUIT     61.66     0  01:46      0.25    0.11    0.35
  HS02004799HS02004480 CONDUIT    155.54     0  01:47      0.65    0.20    0.34
  HS02004792HS02004799 CONDUIT    141.71     0  01:47      0.74    0.09    0.27
  HS02004788HS02004792 CONDUIT     82.36     0  01:48      0.88    0.05    0.13
  HS02004785HS02004788 CONDUIT     61.65     0  01:48      0.55    0.46    0.16
  HS02004777HS02004785 CONDUIT     61.54     0  01:47      0.30    0.08    0.29
  HS02004480HS02004478 CONDUIT    184.33     0  01:49      1.04    0.78    0.25
  HS02004479HS02004480 CONDUIT     29.23     0  01:51      0.28    0.03    0.33
  HS02004862HS02004870 CONDUIT     26.75     0  01:51      0.52    0.03    0.07
  HS02004848HS02004852 CONDUIT     11.37     0  01:51      0.35    0.01    0.05
  HS02004856HS02004862 CONDUIT     18.17     0  01:51      0.38    0.02    0.07
  HS02004852HS02004856 CONDUIT     11.35     0  01:52      0.16    0.01    0.10
  HS02004802HS02004478 CONDUIT     68.53     0  02:17      0.36    0.06    0.28
  HS02004478WS02006287 CONDUIT    250.71     0  01:50      1.43    0.07    0.19
  HS02004817HS02004807 CONDUIT     53.46     0  02:17      0.14    0.03    0.54
  HS02004807HS02004802 CONDUIT     68.45     0  02:16      0.30    0.13    0.33
  YS02001759YS02001757 CONDUIT    445.67     0  02:36      0.57    0.32    1.00
  YS02001762YS02001759 CONDUIT    236.06     0  02:36      0.30    0.27    1.00
  YS02001765YS02001762 CONDUIT    233.70     0  02:36      0.30    0.22    1.00
  YS02001770YS02001767 CONDUIT    228.41     0  02:36      0.38    0.90    1.00
  YS02001774YS02001770 CONDUIT    365.44     0  03:11      0.47    0.23    1.00
  YS02001779YS02001774 CONDUIT    364.89     0  03:11      0.46    0.18    1.00
  YS02001649YS02001757 CONDUIT    678.82     0  02:35      0.86    0.41    1.00
  YS02001767YS02001765 CONDUIT    231.06     0  02:36      0.35    0.29    1.00
  YS02006561YS02001783 CONDUIT    753.60     0  03:03      1.99    0.39    0.85
  YS02001783YS02001784 CONDUIT    753.67     0  03:02      1.50    1.04    1.00
  YS02001784YS02001785 CONDUIT    754.52     0  03:02      1.54    1.76    1.00
  YS02001788YS02001790 CONDUIT    754.59     0  03:03      2.05    0.56    1.00
  YS02001790YS02001791 CONDUIT    754.78     0  03:03      2.41    0.82    1.00
  YS02001791YS02001793 CONDUIT    755.47     0  03:02      4.68    0.32    1.00
  YS02001910YS02001907 CONDUIT    269.26     0  03:10      0.49    0.15    1.00
  YS02001786YS02001788 CONDUIT    754.77     0  03:02      2.03    1.45    1.00
  YS02001915YS02001910 CONDUIT    267.76     0  03:08      0.56    0.13    0.92
  YS02001918YS02001915 CONDUIT    110.44     0  03:15      0.44    0.06    0.66
  YS02001923YS02001920 CONDUIT    101.22     0  03:03      0.64    0.05    0.42
  YS02001926YS02001923 CONDUIT     91.45     0  03:01      0.74    0.13    0.21
  YS02001929YS02001926 CONDUIT     91.55     0  03:01      0.81    0.04    0.20
  YS02001920YS02001918 CONDUIT    106.15     0  03:15      0.63    0.10    0.51
  YS02001629YS02163301 CONDUIT    190.59     0  02:26      0.24    0.23    1.00
  YS02001619YS02001622 CONDUIT    170.04     0  02:16      0.65    0.25    1.00
  YS02001622YS02001625 CONDUIT    231.41     0  02:16      0.32    0.12    1.00
  YS02001625YS02001629 CONDUIT    231.48     0  02:16      0.30    0.11    1.00
  YS02163301YS02001633 CONDUIT    190.15     0  02:26      0.24    0.18    1.00
  YS02163601YS02164001 CONDUIT    352.46     0  02:58      0.45    0.31    1.00
  YS02164001YS02001641 CONDUIT    352.99     0  02:59      0.45    0.48    1.00
  YS02001641YS02001644 CONDUIT    352.45     0  03:00      0.45    1.14    1.00
  YS02001647YS02001649 CONDUIT    524.21     0  03:09      0.67    0.28    1.00
  YS02006553YS02006556 CONDUIT    529.63     0  03:07      0.67    0.45    1.00
  YS02006556YS02006558 CONDUIT    528.57     0  03:07      0.67    0.42    1.00
  YSB6556YSB1171       CONDUIT     16.49     0  01:50      0.07    0.02    0.60
  YS02001907YS02006553 CONDUIT    529.34     0  03:05      0.59    0.62    1.00
  YS02006558YS02006561 CONDUIT    753.42     0  03:03      3.16    1.67    0.97
  YS02001633YS02163601 CONDUIT    351.91     0  02:59      0.45    0.37    1.00
  YS02001644YS02001647 CONDUIT    525.67     0  03:09      0.67    0.31    1.00
  YS02001745YS02001748 CONDUIT    467.15     0  02:32      1.51    0.18    0.95
  YS02001748YS02001751 CONDUIT    399.54     0  02:15      1.12    0.20    1.00
  YS02001751YS02001754 CONDUIT    209.50     0  02:21      0.97    0.10    1.00
  YS02001754YS02001757 CONDUIT    209.41     0  02:21      0.33    0.08    1.00
  YS02001882YS02001884 CONDUIT      9.67     0  03:36      0.12    0.01    0.86
  YS02001884YS02001887 CONDUIT     17.94     0  03:19      0.09    0.02    0.96
  YS02001890YS02001895 CONDUIT    267.17     0  03:01      0.42    0.12    0.90
  YS02001895YS02001898 CONDUIT    264.62     0  03:01      0.55    0.46    0.79
  YS02001898YS02001901 CONDUIT    262.60     0  03:01      0.47    0.17    0.87
  YS02001901YS02001904 CONDUIT    261.97     0  03:02      0.44    0.41    0.93
  YS02001904YS02001907 CONDUIT    262.22     0  03:06      0.37    0.09    0.96
  YS02001887YS02001890 CONDUIT    267.81     0  02:59      0.38    0.46    1.00
  YS02001652YS02001649 CONDUIT    263.61     0  02:24      0.58    0.13    1.00
  YS02001655YS02001652 CONDUIT    263.37     0  02:24      1.05    0.13    1.00
  YS02001658YS02001655 CONDUIT    414.35     0  02:18      1.29    0.18    1.00
  YS02001661YS02001658 CONDUIT    610.92     0  02:27      1.59    0.24    1.00
  YS02001664YS02001661 CONDUIT    495.00     0  02:56      1.43    0.16    0.73
  YSB1154YSB6556       CONDUIT     16.24     0  01:49      0.16    0.03    0.49
  YSB1174YSB1171       CONDUIT     13.23     0  01:45      0.06    0.02    0.61
  YSB1171HS02004479    CONDUIT     29.01     0  01:50      0.54    0.02    0.47
  HS02004881HS02006253 CONDUIT     49.91     0  01:50      1.83    0.01    0.21
  YS02001793JiankangQianchi CONDUIT    886.96     0  01:57     10.87    0.07    1.00
  YS02001757CaochengTiaoxuchi CONDUIT   1280.83     0  02:42      1.81    0.56    1.00
  WSF200WS02003060     CONDUIT    497.41     0  02:32      2.07    0.11    0.30
  1                    CONDUIT    703.99     0  02:35      3.02    0.25    0.34
  2                    CONDUIT     39.86     0  03:31      3.72    0.10    0.21
  3                    CONDUIT    478.83     0  05:10      9.72    0.76    0.66
  4                    CONDUIT      0.00     0  00:00      0.00    0.00    0.00
  CC-Pump-1            PUMP       200.00     0  04:10              1.00
  CC-Pump-2            PUMP       200.00     0  03:30              1.00
  JK-Pump-1            PUMP       300.00     0  05:10              1.00
  JK-Pump-2            PUMP       300.00     0  05:40              1.00
  XR-Pump-1            PUMP        95.00     0  07:40              1.00
  XR-Pump-2            PUMP        95.00     0  00:00              1.00
  XR-Pump-3            PUMP        95.00     0  06:50              1.00
  XR-Pump-4            PUMP        95.00     0  00:00              1.00
  
  
  ***************************
  Flow Classification Summary
  ***************************
  
  -------------------------------------------------------------------------------------
                      Adjusted    ---------- Fraction of Time in Flow Class ---------- 
                       /Actual         Up    Down  Sub   Sup   Up    Down  Norm  Inlet 
  Conduit               Length    Dry  Dry   Dry   Crit  Crit  Crit  Crit  Ltd   Ctrl  
  -------------------------------------------------------------------------------------
  WS02003066WSF200        1.00   0.05  0.00  0.00  0.00  0.95  0.00  0.00  0.81  0.00
  WS02006287WS02006284    1.00   0.04  0.01  0.00  0.64  0.31  0.00  0.00  0.70  0.00
  WS02006284WS02006280    1.00   0.05  0.00  0.00  0.00  0.00  0.00  0.95  0.00  0.00
  WS02006280WS02006229    1.00   0.05  0.00  0.00  0.00  0.00  0.00  0.95  0.00  0.00
  WS02006229WS02006228    1.00   0.00  0.00  0.00  1.00  0.00  0.00  0.00  0.00  0.00
  WS02006256WS02006235    1.00   0.00  0.00  0.00  1.00  0.00  0.00  0.00  0.00  0.00
  WS02006253WS02006251    1.00   0.03  0.02  0.00  0.95  0.00  0.00  0.00  0.00  0.00
  WS02006252WS02006251    1.00   0.07  0.01  0.00  0.00  0.00  0.92  0.00  0.00  0.00
  WS02006251WS02006249    1.00   0.00  0.00  0.00  1.00  0.00  0.00  0.00  0.35  0.00
  WS02006249WS02006248    1.00   0.00  0.00  0.00  0.73  0.00  0.27  0.00  0.00  0.00
  WS02006248WS02006247    1.00   0.00  0.00  0.00  0.97  0.00  0.00  0.03  0.31  0.00
  WS02006247WS02006245    1.00   0.00  0.00  0.00  0.97  0.00  0.00  0.03  0.00  0.00
  WS02006245WS02006243    1.00   0.01  0.00  0.00  0.94  0.00  0.00  0.05  0.04  0.00
  WS02006243WS02006242    1.00   0.01  0.00  0.00  0.99  0.00  0.00  0.00  0.23  0.00
  WS02006242WS02006240    1.00   0.01  0.00  0.00  0.99  0.00  0.00  0.00  0.00  0.00
  WS02006240WS02006239    1.00   0.01  0.00  0.00  0.97  0.00  0.00  0.02  0.02  0.00
  WS02006239WS02006238    1.00   0.01  0.00  0.00  0.99  0.00  0.00  0.00  0.01  0.00
  WS02006238WS02006235    1.00   0.00  0.00  0.00  1.00  0.00  0.00  0.00  0.00  0.00
  WS02006235WS02006234    1.00   0.00  0.00  0.00  0.97  0.00  0.03  0.00  0.00  0.00
  WS02006234WS02006232    1.00   0.00  0.00  0.00  0.99  0.00  0.00  0.00  0.02  0.00
  WS02006232WS02006231    1.00   0.01  0.00  0.00  0.99  0.00  0.00  0.00  0.00  0.00
  WS02006231WS02006230    1.00   0.01  0.00  0.00  0.29  0.00  0.70  0.00  0.00  0.00
  WS02006230WS02006229    1.00   0.00  0.00  0.00  0.99  0.00  0.00  0.01  0.00  0.00
  WS02006228WS02006109    1.00   0.00  0.00  0.00  1.00  0.00  0.00  0.00  0.01  0.00
  WS02006116WS02004401    1.00   0.03  0.00  0.00  0.97  0.00  0.00  0.00  0.00  0.00
  WS02006115WS02006116    1.00   0.03  0.00  0.00  0.97  0.00  0.00  0.01  0.00  0.00
  WS02006113WS02006111    1.00   0.02  0.00  0.00  0.00  0.98  0.00  0.00  0.22  0.00
  WS02006112WS02006115    1.00   0.02  0.01  0.00  0.97  0.00  0.00  0.00  0.00  0.00
  WS02006111WS02006112    1.00   0.02  0.00  0.00  0.97  0.00  0.00  0.00  0.95  0.00
  WS02006110WS02006113    1.00   0.00  0.01  0.00  0.98  0.00  0.00  0.00  0.00  0.00
  WS02006109WS02006110    1.00   0.00  0.00  0.00  1.00  0.00  0.00  0.00  0.00  0.00
  WS02004411WS02004412    1.00   0.04  0.00  0.00  0.96  0.00  0.00  0.00  0.00  0.00
  WS02004401WS02004402    1.00   0.03  0.00  0.00  0.97  0.00  0.00  0.00  0.00  0.00
  WS02004413WS02003067    1.00   0.04  0.01  0.00  0.00  0.00  0.95  0.00  0.00  0.00
  WS02004412WS02004413    1.00   0.04  0.00  0.00  0.96  0.00  0.00  0.00  0.01  0.00
  WS02004410WS02004411    1.00   0.04  0.00  0.00  0.96  0.00  0.00  0.00  0.00  0.00
  WS02004409WS02004410    1.00   0.04  0.00  0.00  0.96  0.00  0.00  0.00  0.02  0.00
  WS02004407WS02004409    1.00   0.04  0.00  0.00  0.96  0.00  0.00  0.00  0.92  0.00
  WS02004406WS02004407    1.00   0.00  0.04  0.00  0.96  0.00  0.00  0.00  0.00  0.00
  WS02004405WS02004406    1.00   0.00  0.00  0.00  1.00  0.00  0.00  0.00  0.03  0.00
  WS02004404WS02004405    1.00   0.00  0.00  0.00  1.00  0.00  0.00  0.00  0.00  0.00
  WS02004403WS02004404    1.00   0.00  0.03  0.00  0.97  0.00  0.00  0.00  0.00  0.00
  WS02004402WS02004403    1.00   0.03  0.00  0.00  0.97  0.00  0.00  0.00  0.00  0.00
  WS02004139WS02001211    1.00   0.00  0.00  0.00  1.00  0.00  0.00  0.00  0.00  0.00
  WS02004138WS02004139    1.00   0.00  0.00  0.00  1.00  0.00  0.00  0.00  1.00  0.00
  WS02003067WS02003066    1.00   0.05  0.00  0.00  0.95  0.00  0.00  0.00  0.00  0.00
  WS02001213WS02003059    1.00   0.00  0.00  0.00  1.00  0.00  0.00  0.00  0.00  0.00
  WS02001212WS02001213    1.00   0.00  0.00  0.00  0.58  0.00  0.42  0.00  0.00  0.00
  WS02001211WS02001212    1.00   0.00  0.00  0.00  1.00  0.00  0.00  0.00  0.00  0.00
  WS02003072WS02003073    1.00   0.00  0.00  0.00  0.00  0.00  0.00  1.00  0.00  0.00
  WS02003069WS02003072    1.00   0.00  0.00  0.00  1.00  0.00  0.00  0.00  0.67  0.00
  WS02003060WS02003069    1.00   0.00  0.00  0.00  0.99  0.01  0.00  0.00  0.34  0.00
  WS02003059WS02003060    1.00   0.00  0.00  0.00  1.00  0.00  0.00  0.00  0.01  0.00
  HS02004901HS02004770    1.00   0.05  0.00  0.00  0.95  0.00  0.00  0.00  0.00  0.00
  HS02004876HS02004881    1.00   0.00  0.00  0.00  1.00  0.00  0.00  0.00  0.00  0.00
  HS02004870HS02004876    1.00   0.00  0.00  0.00  1.00  0.00  0.00  0.00  0.95  0.00
  HS02004842HS02004848    1.00   0.00  0.05  0.00  0.95  0.00  0.00  0.00  0.58  0.00
  HS02004837HS02004842    1.00   0.00  0.00  0.00  1.00  0.00  0.00  0.00  0.11  0.00
  HS02004830HS02004837    1.00   0.00  0.00  0.00  1.00  0.00  0.00  0.00  0.99  0.00
  HS02004824HS02004830    1.00   0.00  0.00  0.00  1.00  0.00  0.00  0.00  0.00  0.00
  HS02004817HS02004824    1.00   0.00  0.00  0.00  1.00  0.00  0.00  0.00  1.00  0.00
  HS02004770HS02004777    1.00   0.00  0.05  0.00  0.95  0.00  0.00  0.00  0.03  0.00
  HS02004799HS02004480    1.00   0.00  0.01  0.00  0.94  0.00  0.04  0.00  0.00  0.00
  HS02004792HS02004799    1.00   0.00  0.00  0.00  1.00  0.00  0.00  0.00  0.98  0.00
  HS02004788HS02004792    1.00   0.00  0.00  0.00  1.00  0.00  0.00  0.00  0.98  0.00
  HS02004785HS02004788    1.00   0.00  0.00  0.00  1.00  0.00  0.00  0.00  0.00  0.00
  HS02004777HS02004785    1.00   0.00  0.00  0.00  1.00  0.00  0.00  0.00  0.12  0.00
  HS02004480HS02004478    1.00   0.05  0.00  0.00  0.69  0.00  0.00  0.26  0.00  0.00
  HS02004479HS02004480    1.00   0.01  0.00  0.00  0.99  0.00  0.00  0.00  0.12  0.00
  HS02004862HS02004870    1.00   0.00  0.00  0.00  1.00  0.00  0.00  0.00  0.04  0.00
  HS02004848HS02004852    1.00   0.05  0.00  0.00  0.95  0.00  0.00  0.00  0.77  0.00
  HS02004856HS02004862    1.00   0.00  0.06  0.00  0.94  0.00  0.00  0.00  0.83  0.00
  HS02004852HS02004856    1.00   0.05  0.00  0.00  0.95  0.00  0.00  0.00  0.86  0.00
  HS02004802HS02004478    1.00   0.05  0.00  0.00  0.95  0.00  0.00  0.00  0.03  0.00
  HS02004478WS02006287    1.00   0.06  0.00  0.00  0.75  0.20  0.00  0.00  0.68  0.00
  HS02004817HS02004807    1.00   0.00  0.05  0.00  0.95  0.00  0.00  0.00  0.01  0.00
  HS02004807HS02004802    1.00   0.05  0.00  0.00  0.95  0.00  0.00  0.00  0.00  0.00
  YS02001759YS02001757    1.00   0.00  0.00  0.00  1.00  0.00  0.00  0.00  0.16  0.00
  YS02001762YS02001759    1.00   0.00  0.00  0.00  1.00  0.00  0.00  0.00  0.03  0.00
  YS02001765YS02001762    1.00   0.00  0.00  0.00  1.00  0.00  0.00  0.00  0.14  0.00
  YS02001770YS02001767    1.00   0.00  0.00  0.00  1.00  0.00  0.00  0.00  0.00  0.00
  YS02001774YS02001770    1.00   0.00  0.05  0.00  0.95  0.00  0.00  0.00  0.03  0.00
  YS02001779YS02001774    1.00   0.00  0.00  0.00  1.00  0.00  0.00  0.00  0.18  0.00
  YS02001649YS02001757    1.00   0.00  0.00  0.00  1.00  0.00  0.00  0.00  0.16  0.00
  YS02001767YS02001765    1.00   0.00  0.00  0.00  1.00  0.00  0.00  0.00  0.00  0.00
  YS02006561YS02001783    1.00   0.06  0.00  0.00  0.45  0.48  0.00  0.00  0.62  0.00
  YS02001783YS02001784    1.00   0.00  0.06  0.00  0.94  0.00  0.00  0.00  0.00  0.00
  YS02001784YS02001785    1.00   0.00  0.00  0.00  1.00  0.00  0.00  0.00  0.17  0.00
  YS02001788YS02001790    1.00   0.00  0.00  0.00  0.54  0.46  0.00  0.00  0.52  0.00
  YS02001790YS02001791    1.00   0.00  0.00  0.00  0.48  0.52  0.00  0.00  0.39  0.00
  YS02001791YS02001793    1.00   0.00  0.00  0.00  0.50  0.50  0.00  0.00  0.01  0.00
  YS02001910YS02001907    1.00   0.00  0.00  0.00  0.99  0.00  0.00  0.01  0.12  0.00
  YS02001786YS02001788    1.00   0.00  0.00  0.00  0.53  0.47  0.00  0.00  0.00  0.00
  YS02001915YS02001910    1.00   0.00  0.00  0.00  0.99  0.01  0.00  0.00  0.16  0.00
  YS02001918YS02001915    1.00   0.00  0.00  0.00  1.00  0.00  0.00  0.00  0.60  0.00
  YS02001923YS02001920    1.00   0.00  0.00  0.00  1.00  0.00  0.00  0.00  0.93  0.00
  YS02001926YS02001923    1.00   0.00  0.04  0.00  0.00  0.00  0.96  0.00  0.00  0.00
  YS02001929YS02001926    1.00   0.00  0.05  0.00  0.95  0.00  0.00  0.00  0.87  0.00
  YS02001920YS02001918    1.00   0.00  0.00  0.00  1.00  0.00  0.00  0.00  0.00  0.00
  YS02001629YS02163301    1.00   0.05  0.00  0.00  0.94  0.00  0.00  0.00  0.00  0.00
  YS02001619YS02001622    1.00   0.05  0.00  0.00  0.95  0.00  0.00  0.00  0.00  0.00
  YS02001622YS02001625    1.00   0.05  0.00  0.00  0.95  0.00  0.00  0.00  0.04  0.00
  YS02001625YS02001629    1.00   0.05  0.01  0.00  0.93  0.00  0.01  0.00  0.00  0.00
  YS02163301YS02001633    1.00   0.00  0.05  0.00  0.95  0.00  0.00  0.00  0.00  0.00
  YS02163601YS02164001    1.00   0.00  0.04  0.00  0.96  0.00  0.00  0.00  0.00  0.00
  YS02164001YS02001641    1.00   0.00  0.04  0.00  0.96  0.00  0.00  0.00  0.06  0.00
  YS02001641YS02001644    1.00   0.00  0.00  0.00  1.00  0.00  0.00  0.00  0.00  0.00
  YS02001647YS02001649    1.00   0.00  0.06  0.00  0.94  0.00  0.00  0.00  0.01  0.00
  YS02006553YS02006556    1.00   0.00  0.00  0.00  1.00  0.00  0.00  0.00  0.03  0.00
  YS02006556YS02006558    1.00   0.00  0.00  0.00  1.00  0.00  0.00  0.00  0.00  0.00
  YSB6556YSB1171          1.00   0.02  0.03  0.00  0.95  0.00  0.00  0.00  0.00  0.00
  YS02001907YS02006553    1.00   0.00  0.00  0.00  1.00  0.00  0.00  0.00  0.00  0.00
  YS02006558YS02006561    1.00   0.06  0.00  0.00  0.03  0.91  0.00  0.00  0.54  0.00
  YS02001633YS02163601    1.00   0.00  0.00  0.00  1.00  0.00  0.00  0.00  0.15  0.00
  YS02001644YS02001647    1.00   0.00  0.06  0.00  0.94  0.00  0.00  0.00  0.00  0.00
  YS02001745YS02001748    1.00   0.00  0.00  0.00  0.89  0.00  0.00  0.10  0.04  0.00
  YS02001748YS02001751    1.00   0.00  0.00  0.00  0.98  0.02  0.00  0.00  0.14  0.00
  YS02001751YS02001754    1.00   0.00  0.00  0.00  0.93  0.00  0.00  0.06  0.02  0.00
  YS02001754YS02001757    1.00   0.00  0.00  0.00  1.00  0.00  0.00  0.00  0.18  0.00
  YS02001882YS02001884    1.00   0.05  0.00  0.00  0.95  0.00  0.00  0.00  0.00  0.00
  YS02001884YS02001887    1.00   0.03  0.01  0.00  0.95  0.00  0.00  0.00  0.00  0.00
  YS02001890YS02001895    1.00   0.00  0.06  0.00  0.94  0.00  0.00  0.00  0.00  0.00
  YS02001895YS02001898    1.00   0.06  0.00  0.00  0.94  0.00  0.01  0.00  0.00  0.00
  YS02001898YS02001901    1.00   0.06  0.00  0.00  0.94  0.00  0.00  0.00  0.01  0.00
  YS02001901YS02001904    1.00   0.06  0.00  0.00  0.94  0.00  0.00  0.00  0.00  0.00
  YS02001904YS02001907    1.00   0.00  0.06  0.00  0.94  0.00  0.00  0.00  0.00  0.00
  YS02001887YS02001890    1.00   0.00  0.00  0.00  0.99  0.00  0.01  0.00  0.00  0.00
  YS02001652YS02001649    1.00   0.00  0.00  0.00  1.00  0.00  0.00  0.00  0.16  0.00
  YS02001655YS02001652    1.00   0.00  0.00  0.00  0.93  0.00  0.00  0.06  0.02  0.00
  YS02001658YS02001655    1.00   0.00  0.05  0.00  0.93  0.02  0.00  0.00  0.05  0.00
  YS02001661YS02001658    1.00   0.05  0.00  0.00  0.89  0.06  0.00  0.00  0.04  0.00
  YS02001664YS02001661    1.00   0.05  0.00  0.00  0.87  0.08  0.00  0.00  0.20  0.00
  YSB1154YSB6556          1.00   0.05  0.00  0.00  0.95  0.00  0.00  0.00  0.02  0.00
  YSB1174YSB1171          1.00   0.03  0.01  0.00  0.96  0.00  0.00  0.00  0.00  0.00
  YSB1171HS02004479       1.00   0.01  0.00  0.00  0.97  0.00  0.00  0.02  0.10  0.00
  HS02004881HS02006253    1.00   0.03  0.00  0.00  0.43  0.04  0.00  0.50  0.31  0.00
  YS02001793JiankangQianchi    1.00   0.00  0.00  0.00  0.71  0.29  0.00  0.00  0.26  0.00
  YS02001757CaochengTiaoxuchi    1.00   0.00  0.07  0.00  0.93  0.00  0.00  0.00  0.00  0.00
  WSF200WS02003060        1.00   0.00  0.05  0.00  0.23  0.72  0.00  0.00  0.22  0.00
  1                       1.00   0.00  0.00  0.00  0.00  1.00  0.00  0.00  0.27  0.00
  2                       1.00   0.94  0.00  0.00  0.00  0.06  0.00  0.00  0.01  0.00
  3                       1.00   0.37  0.00  0.00  0.00  0.63  0.00  0.00  0.08  0.00
  4                       1.00   1.00  0.00  0.00  0.00  0.00  0.00  0.00  0.00  0.00
  
  
  *************************
  Conduit Surcharge Summary
  *************************
  
  ----------------------------------------------------------------------------
                                                           Hours        Hours 
                         --------- Hours Full --------   Above Full   Capacity
  Conduit                Both Ends  Upstream  Dnstream   Normal Flow   Limited
  ----------------------------------------------------------------------------
  WS02006229WS02006228        0.83      0.87      0.83      2.24         0.82
  WS02006256WS02006235        5.55      5.55      7.36      3.85         0.01
  WS02006252WS02006251        0.11      0.11      0.36      0.29         0.01
  WS02006251WS02006249        0.01      0.01      0.01      0.11         0.01
  WS02006249WS02006248        0.01      0.01      0.01      1.79         0.01
  WS02006247WS02006245        0.01      0.01      0.01      2.56         0.01
  WS02006242WS02006240        0.01      0.01      0.09      0.37         0.01
  WS02006239WS02006238        0.06      0.06      0.07      0.01         0.01
  WS02006238WS02006235        0.04      0.04      0.12      0.01         0.01
  WS02006235WS02006234        0.01      0.01      0.01      5.51         0.01
  WS02006234WS02006232        0.01      0.01      0.24      0.01         0.01
  WS02006232WS02006231        0.01      0.01      0.24      0.01         0.01
  WS02006231WS02006230        0.01      0.01      0.01      5.72         0.01
  WS02006230WS02006229        1.20      1.92      1.20      6.39         1.20
  WS02006228WS02006109        0.84      1.03      0.84      3.62         0.84
  WS02006112WS02006115        0.01      0.01      0.10      0.01         0.01
  WS02006111WS02006112        0.01      0.01      2.43      0.01         0.01
  WS02006110WS02006113        0.01      0.01      0.91      0.01         0.01
  WS02006109WS02006110        0.01      0.01      1.03      0.01         0.01
  WS02004404WS02004405        0.01      0.01      0.01      6.26         0.01
  WS02003072WS02003073        0.01      0.01      0.01      1.25         0.01
  YS02001759YS02001757        5.97      5.97      6.03      0.01         0.01
  YS02001762YS02001759        5.94      5.94      5.97      0.01         0.01
  YS02001765YS02001762        5.92      5.92      5.94      0.01         0.01
  YS02001770YS02001767        5.90      5.90      5.90      0.01         0.74
  YS02001774YS02001770        5.88      5.88      5.93      0.01         0.01
  YS02001779YS02001774        5.68      5.68      5.93      0.01         0.01
  YS02001649YS02001757        5.95      5.95      6.03      0.01         0.01
  YS02001767YS02001765        5.90      5.90      5.92      0.01         0.01
  YS02006561YS02001783        0.01      0.01      1.23      0.01         0.01
  YS02001783YS02001784        1.23      1.23      1.34      0.31         0.34
  YS02001784YS02001785        1.25      1.34      1.25      1.88         1.24
  YS02001788YS02001790        1.20      1.20      3.06      0.01         0.01
  YS02001790YS02001791        3.06      3.06      3.10      0.01         0.01
  YS02001791YS02001793        3.10      3.10      3.23      0.01         0.01
  YS02001910YS02001907        0.21      0.21      1.28      0.01         0.01
  YS02001786YS02001788        1.20      1.25      1.20      1.49         1.19
  YS02001915YS02001910        0.01      0.01      0.21      0.01         0.01
  YS02001629YS02163301        5.88      5.88      5.88      0.01         0.01
  YS02001619YS02001622        5.43      5.43      5.51      0.01         0.02
  YS02001622YS02001625        5.51      5.51      5.84      0.01         0.01
  YS02001625YS02001629        5.46      5.46      5.84      0.01         0.01
  YS02163301YS02001633        5.88      5.88      5.92      0.01         0.01
  YS02163601YS02164001        5.92      5.92      5.95      0.01         0.01
  YS02164001YS02001641        5.92      5.92      5.92      0.01         0.03
  YS02001641YS02001644        5.92      5.92      5.93      0.74         1.05
  YS02001647YS02001649        5.81      5.81      5.95      0.01         0.01
  YS02006553YS02006556        0.67      0.67      1.35      0.01         0.01
  YS02006556YS02006558        1.02      1.02      1.43      0.01         0.01
  YS02001907YS02006553        1.93      1.93      2.15      0.01         0.01
  YS02006558YS02006561        0.01      0.59      0.01      1.76         0.01
  YS02001633YS02163601        5.91      5.91      5.95      0.01         0.01
  YS02001644YS02001647        5.81      5.81      5.93      0.01         0.01
  YS02001745YS02001748        0.01      0.01      5.21      0.01         0.01
  YS02001748YS02001751        5.27      5.27      5.44      0.01         0.01
  YS02001751YS02001754        5.44      5.44      5.73      0.01         0.01
  YS02001754YS02001757        5.79      5.79      6.03      0.01         0.01
  YS02001890YS02001895        0.01      0.01      0.26      0.01         0.01
  YS02001904YS02001907        0.01      0.01      1.38      0.01         0.01
  YS02001887YS02001890        0.01      0.01      0.15      0.01         0.01
  YS02001652YS02001649        5.83      5.83      5.95      0.01         0.01
  YS02001655YS02001652        5.48      5.48      5.77      0.01         0.01
  YS02001658YS02001655        5.24      5.24      5.48      0.01         0.01
  YS02001661YS02001658        0.12      0.12      5.24      0.01         0.01
  YS02001664YS02001661        0.01      0.01      1.03      0.01         0.01
  YS02001793JiankangQianchi        3.19      3.19      4.26      0.01         0.01
  YS02001757CaochengTiaoxuchi        5.17      5.17      6.03      0.01         0.01
  
  
  ***************
  Pumping Summary
  ***************
  
  ---------------------------------------------------------------------------------------------------------
                                                  Min       Avg       Max     Total     Power    % Time Off
                        Percent   Number of      Flow      Flow      Flow    Volume     Usage    Pump Curve
  Pump                 Utilized   Start-Ups       LPS       LPS       LPS  10^6 ltr     Kw-hr    Low   High
  ---------------------------------------------------------------------------------------------------------
  CC-Pump-1               21.55           5      0.00    115.92    200.00     0.651      0.67    0.0   11.2
  CC-Pump-2               42.83           7      0.00    133.67    200.00     1.491      1.44    0.0    5.6
  JK-Pump-1               44.67           7      0.00    155.53    300.00     1.602     17.76    0.0    0.0
  JK-Pump-2               63.82           9      0.00    141.33    300.00     2.019     21.99    0.0    0.0
  XR-Pump-1               46.80           8      0.00     47.22     95.00     0.656      3.06    0.0    0.0
  XR-Pump-2               40.41           6      0.00     52.85     95.00     0.599      3.56    0.0    0.0
  XR-Pump-3               40.41           7      0.00     48.72     95.00     0.570      2.56    0.0    0.0
  XR-Pump-4               42.55           7      0.00     58.82     95.00     0.712      3.82    0.0    0.0
  

  Analysis begun on:  Wed Jan  5 15:48:57 2022
  Analysis ended on:  Wed Jan  5 15:49:00 2022
  Total elapsed time: 00:00:03