
  EPA STORM WATER MANAGEMENT MODEL - VERSION 5.1 (Build 5.3.0.dev0)
  --------------------------------------------------------------

  WARNING 04: minimum elevation drop used for Conduit WS02004404WS02004405
  WARNING 03: negative offset ignored for Link YS02001904YS02001907
  
  *********************************************************
  NOTE: The summary statistics displayed in this report are
  based on results found at every computational time step,  
  not just on results from each reporting time step.
  *********************************************************
  
  ****************
  Analysis Options
  ****************
  Flow Units ............... LPS
  Process Models:
    Rainfall/Runoff ........ YES
    RDII ................... NO
    Snowmelt ............... NO
    Groundwater ............ NO
    Flow Routing ........... YES
    Ponding Allowed ........ NO
    Water Quality .......... NO
  Infiltration Method ...... HORTON
  Flow Routing Method ...... DYNWAVE
  Surcharge Method ......... EXTRAN
  Starting Date ............ 08/28/2015 08:00:00
  Ending Date .............. 08/28/2015 15:50:00
  Antecedent Dry Days ...... 8.0
  Report Time Step ......... 00:01:00
  Wet Time Step ............ 00:01:00
  Dry Time Step ............ 00:01:00
  Routing Time Step ........ 5.00 sec
  Variable Time Step ....... YES
  Maximum Trials ........... 8
  Number of Threads ........ 4
  Head Tolerance ........... 0.001500 m
  
  
  **************************        Volume         Depth
  Runoff Quantity Continuity     hectare-m            mm
  **************************     ---------       -------
  Total Precipitation ......         4.854        10.627
  Evaporation Loss .........         0.000         0.000
  Infiltration Loss ........         1.246         2.727
  Surface Runoff ...........         2.607         5.707
  Final Storage ............         1.002         2.194
  Continuity Error (%) .....        -0.015
  
  
  **************************        Volume        Volume
  Flow Routing Continuity        hectare-m      10^6 ltr
  **************************     ---------     ---------
  Dry Weather Inflow .......         0.616         6.165
  Wet Weather Inflow .......         2.606        26.059
  Groundwater Inflow .......         0.000         0.000
  RDII Inflow ..............         0.000         0.000
  External Inflow ..........         0.102         1.024
  External Outflow .........         1.701        17.014
  Flooding Loss ............         1.077        10.772
  Evaporation Loss .........         0.000         0.000
  Exfiltration Loss ........         0.000         0.000
  Initial Stored Volume ....         0.076         0.761
  Final Stored Volume ......         0.628         6.279
  Continuity Error (%) .....        -0.172
  
  
  *************************
  Highest Continuity Errors
  *************************
  Node HS02004842 (17.68%)
  Node YS02001884 (10.75%)
  Node YSB1171 (3.62%)
  Node HS02004817 (3.28%)
  Node YS02001774 (2.85%)
  
  
  ***************************
  Time-Step Critical Elements
  ***************************
  Link 3 (71.63%)
  Link WS02006252WS02006251 (19.05%)
  Link YS02001793JiankangQianchi (2.24%)
  Link WS02006238WS02006235 (1.52%)
  Link WS02006280WS02006229 (1.40%)
  
  
  ********************************
  Highest Flow Instability Indexes
  ********************************
  Link WS02006113WS02006111 (56)
  Link YS02163301YS02001633 (47)
  Link YS02163601YS02164001 (46)
  Link YS02001629YS02163301 (46)
  Link YS02001619YS02001622 (45)
  
  
  *************************
  Routing Time Step Summary
  *************************
  Minimum Time Step           :     0.50 sec
  Average Time Step           :     0.97 sec
  Maximum Time Step           :     5.00 sec
  Percent in Steady State     :    -0.00
  Average Iterations per Step :     4.66
  Percent Not Converging      :    22.38
  
  
  ***************************
  Subcatchment Runoff Summary
  ***************************
  
  ------------------------------------------------------------------------------------------------------------------------------
                            Total      Total      Total      Total     Imperv       Perv      Total       Total     Peak  Runoff
                           Precip      Runon       Evap      Infil     Runoff     Runoff     Runoff      Runoff   Runoff   Coeff
  Subcatchment                 mm         mm         mm         mm         mm         mm         mm    10^6 ltr      LPS
  ------------------------------------------------------------------------------------------------------------------------------
  sub0                      10.63       0.00       0.00       0.74       8.62       0.00       8.62        0.01     1.33   0.811
  sub1                      10.63       0.00       0.00       1.17       8.20       0.00       8.20        0.05     9.09   0.772
  sub2                      10.63       0.00       0.00       3.93       5.79       0.00       5.79        0.05     8.42   0.544
  sub3                      10.63       0.00       0.00       3.93       5.75       0.00       5.75        0.13    19.27   0.541
  sub4                      10.63       0.00       0.00       1.17       8.05       0.00       8.05        0.17    23.93   0.757
  sub5                      10.63       0.00       0.00       0.74       8.57       0.00       8.57        0.10    16.17   0.806
  sub7                      10.63       0.00       0.00       0.96       8.41       0.00       8.41        0.03     5.13   0.792
  sub8                      10.63       0.00       0.00       0.96       8.41       0.00       8.41        0.05     9.46   0.791
  sub9                      10.63       0.00       0.00       0.96       8.40       0.00       8.40        0.04     7.08   0.791
  sub10                     10.63       0.00       0.00       0.85       8.48       0.00       8.48        0.09    15.87   0.798
  sub11                     10.63       0.00       0.00       0.85       8.50       0.00       8.50        0.10    17.56   0.800
  sub12                     10.63       0.00       0.00       1.38       8.06       0.00       8.06        0.07    13.15   0.758
  sub14                     10.63       0.00       0.00       0.96       8.40       0.00       8.40        0.08    13.93   0.791
  sub15                     10.63       0.00       0.00       3.19       6.46       0.00       6.46        0.11    19.14   0.608
  sub16                     10.63       0.00       0.00       3.51       6.20       0.00       6.20        0.06    12.01   0.584
  sub17                     10.63       0.00       0.00       3.40       6.29       0.00       6.29        0.05     9.91   0.592
  sub22                     10.63       0.00       0.00       4.57       5.27       0.00       5.27        0.33    59.53   0.496
  sub23                     10.63       0.00       0.00       3.93       5.82       0.00       5.82        0.28    50.05   0.548
  sub60                     10.63       0.00       0.00       1.28       6.54       0.00       6.54        1.98   196.13   0.615
  sub61                     10.63       0.00       0.00       1.81       6.69       0.00       6.69        2.06   224.83   0.630
  sub62                     10.63       0.00       0.00       0.85       7.26       0.00       7.26        2.23   236.97   0.684
  sub63                     10.63       0.00       0.00       3.08       5.87       0.00       5.87        1.78   199.96   0.553
  sub64                     10.63       0.00       0.00       1.59       6.27       0.00       6.27        1.91   187.22   0.590
  sub65                     10.63       0.00       0.00       1.38       6.37       0.00       6.37        1.96   190.91   0.599
  sub66                     10.63       0.00       0.00       3.08       5.39       0.00       5.39        1.65   167.73   0.507
  sub67                     10.63       0.00       0.00       0.85       7.71       0.00       7.71        2.38   272.25   0.726
  sub68                     10.63       0.00       0.00       1.49       7.05       0.00       7.05        2.17   241.26   0.664
  sub69                     10.63       0.00       0.00       1.59       7.35       0.00       7.35        1.72   204.41   0.692
  sub70                     10.63       7.50       0.00       6.16       9.71       0.01       9.71        2.22   229.02   0.536
  sub71                     10.63       0.00       0.00       0.85       7.06       0.00       7.06        1.67   170.86   0.664
  sub72                     10.63       0.00       0.00       0.74       5.52       0.00       5.52        1.12    91.59   0.519
  sub73                     10.63       9.45       0.00       6.83      10.48       0.00      10.49        2.46   215.21   0.522
  sub74                     10.63       0.00       0.00       7.97       2.19       0.00       2.19        0.88   108.49   0.206
  
  
  ******************
  Node Depth Summary
  ******************
  
  ---------------------------------------------------------------------------------
                                 Average  Maximum  Maximum  Time of Max    Reported
                                   Depth    Depth      HGL   Occurrence   Max Depth
  Node                 Type       Meters   Meters   Meters  days hr:min      Meters
  ---------------------------------------------------------------------------------
  WS02001211           JUNCTION     0.68     0.72     5.56     0  02:26        0.72
  WS02001212           JUNCTION     0.40     0.44     5.51     0  02:25        0.44
  WS02001213           JUNCTION     0.62     0.70     5.46     0  02:24        0.70
  WS02003069           JUNCTION     0.42     0.54     5.12     0  02:24        0.54
  WS02003072           JUNCTION     0.49     0.60     4.97     0  02:24        0.60
  WS02003073           JUNCTION     0.29     0.37     4.43     0  02:25        0.37
  WS02003060           JUNCTION     0.38     0.48     5.41     0  02:23        0.48
  WS02003066           JUNCTION     0.21     0.29     5.85     0  02:22        0.29
  WS02003059           JUNCTION     0.68     0.76     5.44     0  02:24        0.76
  WS02003067           JUNCTION     0.53     0.69     6.01     0  02:22        0.69
  WS02004401           JUNCTION     0.62     0.84     6.84     0  02:18        0.84
  WS02004402           JUNCTION     0.65     0.86     6.82     0  02:18        0.86
  WS02004403           JUNCTION     0.67     0.88     6.81     0  02:18        0.88
  WS02004404           JUNCTION     0.75     0.95     6.80     0  02:18        0.95
  WS02004406           JUNCTION     0.76     0.95     6.78     0  02:19        0.95
  WS02004409           JUNCTION     0.44     0.65     6.42     0  02:21        0.65
  WS02004410           JUNCTION     0.46     0.67     6.39     0  02:21        0.67
  WS02004411           JUNCTION     0.48     0.68     6.36     0  02:21        0.68
  WS02004412           JUNCTION     0.49     0.69     6.33     0  02:21        0.69
  WS02004413           JUNCTION     0.65     0.85     6.32     0  02:22        0.85
  WS02004405           JUNCTION     0.75     0.94     6.79     0  02:18        0.94
  WS02006109           JUNCTION     0.69     0.95     7.57     0  02:15        0.95
  WS02006110           JUNCTION     0.69     0.91     7.49     0  02:15        0.91
  WS02006111           JUNCTION     0.20     0.28     6.99     0  02:16        0.28
  WS02006112           JUNCTION     0.78     1.04     6.93     0  02:19        1.04
  WS02006113           JUNCTION     0.30     0.44     7.34     0  02:16        0.44
  WS02006115           JUNCTION     0.51     0.74     6.87     0  02:17        0.73
  WS02006116           JUNCTION     0.59     0.82     6.86     0  02:18        0.82
  WS02006230           JUNCTION     0.63     0.97     7.71     0  02:15        0.97
  WS02006231           JUNCTION     0.40     0.62     7.75     0  02:15        0.62
  WS02006232           JUNCTION     0.52     0.75     7.78     0  03:04        0.75
  WS02006234           JUNCTION     0.43     0.67     7.83     0  03:04        0.67
  WS02006235           JUNCTION     0.45     0.69     7.86     0  03:04        0.69
  WS02006238           JUNCTION     0.47     0.72     7.86     0  03:04        0.72
  WS02006240           JUNCTION     0.34     0.61     7.91     0  03:05        0.61
  WS02006242           JUNCTION     0.37     0.66     7.93     0  03:05        0.66
  WS02006243           JUNCTION     0.24     0.53     7.95     0  03:05        0.53
  WS02006245           JUNCTION     0.21     0.50     7.98     0  03:05        0.50
  WS02006247           JUNCTION     0.22     0.51     8.01     0  03:05        0.51
  WS02006248           JUNCTION     0.18     0.44     8.03     0  03:05        0.44
  WS02006249           JUNCTION     0.21     0.47     8.07     0  03:05        0.47
  WS02006239           JUNCTION     0.41     0.68     7.89     0  03:05        0.68
  WS02006251           JUNCTION     0.19     0.45     8.12     0  03:03        0.45
  WS02006252           JUNCTION     0.16     0.35     8.59     0  02:50        0.35
  WS02006253           JUNCTION     0.23     0.47     8.12     0  03:03        0.47
  WS02006256           JUNCTION     1.04     1.15     8.08     0  00:00        1.12
  WS02004138           JUNCTION     0.16     0.17     7.42     0  00:00        0.17
  WS02004407           JUNCTION     0.20     0.29     6.60     0  02:19        0.29
  WS02006228           JUNCTION     0.68     0.98     7.63     0  02:15        0.98
  WS02006229           JUNCTION     0.65     0.98     7.67     0  02:15        0.98
  WS02006280           JUNCTION     0.07     0.16     8.43     0  01:50        0.16
  WS02006284           JUNCTION     0.37     0.50     8.90     0  01:50        0.50
  WS02006287           JUNCTION     0.10     0.23     9.19     0  01:50        0.23
  WSF200               JUNCTION     0.19     0.30     5.53     0  02:22        0.30
  HS02004901           JUNCTION     0.13     0.24    10.06     0  01:47        0.24
  HS02004881           JUNCTION     0.01     0.03     9.06     0  01:50        0.03
  HS02004876           JUNCTION     0.05     0.11     9.14     0  01:47        0.11
  HS02004870           JUNCTION     0.02     0.05     9.33     0  01:50        0.05
  HS02004862           JUNCTION     0.02     0.05     9.44     0  01:51        0.05
  HS02004856           JUNCTION     0.08     0.11     9.54     0  01:51        0.11
  HS02004852           JUNCTION     0.01     0.03     9.54     0  01:52        0.03
  HS02004848           JUNCTION     0.01     0.03     9.63     0  01:51        0.03
  HS02004842           JUNCTION     0.33     0.36     9.63     0  01:51        0.36
  HS02004837           JUNCTION     0.03     0.05     9.63     0  01:51        0.05
  HS02004830           JUNCTION     0.04     0.07     9.54     0  01:51        0.07
  HS02004824           JUNCTION     0.02     0.05     9.45     0  02:16        0.05
  HS02004817           JUNCTION     0.44     0.54     9.39     0  01:51        0.54
  HS02004807           JUNCTION     0.13     0.22     9.39     0  01:51        0.22
  HS02004802           JUNCTION     0.17     0.25     9.38     0  01:51        0.25
  HS02004799           JUNCTION     0.13     0.28     9.49     0  01:48        0.28
  HS02004792           JUNCTION     0.04     0.11     9.63     0  01:47        0.11
  HS02004788           JUNCTION     0.03     0.08     9.98     0  01:48        0.08
  HS02004785           JUNCTION     0.05     0.14    10.04     0  01:48        0.14
  HS02004777           JUNCTION     0.15     0.26    10.06     0  01:47        0.26
  HS02004770           JUNCTION     0.12     0.23    10.06     0  01:47        0.23
  HS02004480           JUNCTION     0.09     0.21     9.46     0  01:48        0.21
  HS02004479           JUNCTION     0.12     0.25     9.46     0  01:48        0.25
  HS02004478           JUNCTION     0.06     0.14     9.37     0  01:49        0.14
  YS02001745           JUNCTION     0.68     0.87     8.39     0  03:27        0.87
  YS02001748           JUNCTION     1.07     1.57     8.64     0  02:34        1.31
  YS02001751           JUNCTION     1.26     2.04     8.91     0  02:17        1.52
  YS02001754           JUNCTION     1.51     2.04     8.65     0  02:17        1.80
  YS02001762           JUNCTION     1.71     2.03     8.43     0  03:27        2.02
  YS02001765           JUNCTION     1.66     1.97     8.42     0  03:02        1.96
  YS02001767           JUNCTION     1.62     1.93     8.42     0  02:53        1.92
  YS02001770           JUNCTION     1.62     1.91     8.40     0  03:24        1.90
  YS02001774           JUNCTION     1.69     1.98     8.40     0  02:13        1.96
  YS02001779           JUNCTION     1.44     1.68     8.37     0  02:13        1.68
  YS02001882           JUNCTION     0.43     0.84     7.56     0  03:03        0.84
  YS02001884           JUNCTION     0.53     0.94     7.56     0  03:02        0.94
  YS02001759           JUNCTION     1.74     2.07     8.43     0  02:56        2.06
  YS02001887           JUNCTION     0.60     1.02     7.56     0  03:03        1.02
  YS02001890           JUNCTION     0.63     1.05     7.56     0  03:03        1.05
  YS02001898           JUNCTION     0.40     0.81     7.55     0  03:03        0.81
  YS02001901           JUNCTION     0.52     0.94     7.55     0  03:02        0.94
  YS02001904           JUNCTION     0.50     0.91     7.54     0  03:02        0.91
  YS02001907           JUNCTION     0.83     1.25     7.54     0  03:03        1.25
  YS02001910           JUNCTION     0.62     1.04     7.55     0  03:02        1.04
  YS02001915           JUNCTION     0.42     0.83     7.55     0  03:03        0.83
  YS02001918           JUNCTION     0.16     0.48     7.55     0  03:03        0.48
  YS02001619           JUNCTION     1.22     1.61     8.54     0  02:25        1.48
  YS02001629           JUNCTION     1.57     1.85     8.40     0  02:29        1.85
  YS02001641           JUNCTION     1.67     1.93     8.37     0  02:54        1.93
  YS02001644           JUNCTION     1.67     1.92     8.35     0  02:39        1.92
  YS02001652           JUNCTION     1.52     2.12     8.72     0  02:18        1.98
  YS02001655           JUNCTION     1.29     2.20     9.05     0  02:23        1.85
  YS02001920           JUNCTION     0.26     0.55     7.56     0  03:03        0.54
  YS02001923           JUNCTION     0.11     0.30     7.56     0  03:03        0.30
  YS02001926           JUNCTION     0.20     0.26     7.71     0  03:01        0.26
  YS02001929           JUNCTION     0.10     0.14     7.84     0  03:01        0.14
  YS02001658           JUNCTION     1.02     2.30     9.44     0  02:24        1.78
  YS02001661           JUNCTION     0.79     2.15     9.55     0  02:46        1.73
  YS02001664           JUNCTION     0.35     0.57     8.50     0  02:49        0.56
  YS02001622           JUNCTION     1.24     1.62     8.52     0  02:25        1.50
  YS02001633           JUNCTION     1.66     1.96     8.42     0  02:33        1.93
  YS02001649           JUNCTION     1.72     2.05     8.44     0  02:24        2.05
  YS02001757           JUNCTION     1.84     2.17     8.43     0  03:05        2.16
  YS02001895           JUNCTION     0.40     0.81     7.55     0  03:03        0.80
  YS02001625           JUNCTION     1.52     1.78     8.38     0  02:28        1.78
  YS02163301           JUNCTION     1.60     1.90     8.42     0  02:33        1.87
  YS02163601           JUNCTION     1.71     2.00     8.40     0  02:34        1.98
  YS02164001           JUNCTION     1.65     1.93     8.39     0  02:34        1.91
  YS02001647           JUNCTION     1.51     1.80     8.41     0  02:44        1.79
  YSB1154              JUNCTION     0.26     0.40     9.46     0  01:48        0.40
  YSB6556              JUNCTION     0.16     0.29     9.46     0  01:48        0.29
  YSB1174              JUNCTION     0.21     0.35     9.46     0  01:49        0.35
  YSB1171              JUNCTION     0.41     0.55     9.46     0  01:48        0.55
  YS02006553           JUNCTION     0.83     1.25     7.53     0  03:02        1.25
  YS02006561           JUNCTION     0.24     0.56     7.22     0  03:03        0.56
  YS02006556           JUNCTION     0.80     1.21     7.52     0  03:03        1.21
  YS02006558           JUNCTION     0.84     1.24     7.51     0  03:03        1.24
  YS02001783           JUNCTION     0.49     1.39     7.53     0  02:21        1.07
  YS02001784           JUNCTION     0.52     1.54     7.61     0  02:21        1.07
  YS02001786           JUNCTION     0.48     1.67     7.70     0  02:21        0.98
  YS02001788           JUNCTION     0.44     2.11     8.09     0  02:21        0.93
  YS02001790           JUNCTION     0.60     1.96     7.60     0  02:19        1.16
  YS02001791           JUNCTION     0.61     1.62     7.09     0  02:21        1.22
  YS02001793           JUNCTION     0.90     2.68     7.51     0  02:17        1.79
  WS02004139           JUNCTION     0.63     0.66     5.57     0  02:27        0.66
  WSC                  OUTFALL      0.29     0.37     1.04     0  02:25        0.37
  3                    OUTFALL      0.08     0.13     6.13     0  00:00        0.12
  4                    OUTFALL      0.00     0.00     7.00     0  00:00        0.00
  5                    OUTFALL      0.00     0.00     5.00     0  00:00        0.00
  JK-storage           STORAGE      3.38     5.80     6.60     0  02:21        5.80
  CC-storage           STORAGE      1.08     1.38     8.38     0  03:24        1.38
  XR-storage           STORAGE      6.36     7.72     5.72     0  03:00        7.72
  
  
  *******************
  Node Inflow Summary
  *******************
  
  -------------------------------------------------------------------------------------------------
                                  Maximum  Maximum                  Lateral       Total        Flow
                                  Lateral    Total  Time of Max      Inflow      Inflow     Balance
                                   Inflow   Inflow   Occurrence      Volume      Volume       Error
  Node                 Type           LPS      LPS  days hr:min    10^6 ltr    10^6 ltr     Percent
  -------------------------------------------------------------------------------------------------
  WS02001211           JUNCTION      7.35   293.83     0  03:34       0.207        7.92       0.447
  WS02001212           JUNCTION      0.00   295.22     0  03:34           0        7.89       0.265
  WS02001213           JUNCTION      0.00   296.53     0  03:33           0        7.87       0.285
  WS02003069           JUNCTION      0.32   820.82     0  02:23     0.00902        14.3       0.194
  WS02003072           JUNCTION      0.00   820.76     0  02:24           0        14.3       0.242
  WS02003073           JUNCTION      1.82   822.58     0  02:25      0.0514        14.3       0.269
  WS02003060           JUNCTION     16.53   820.52     0  02:23       0.466        14.3       0.183
  WS02003066           JUNCTION      0.00   515.68     0  02:22           0        6.07       0.062
  WS02003059           JUNCTION      0.00   299.09     0  03:32           0        7.85       0.470
  WS02003067           JUNCTION      0.00   515.64     0  02:22           0        6.07       0.134
  WS02004401           JUNCTION      0.00   521.43     0  02:18           0        6.27       0.284
  WS02004402           JUNCTION      0.00   520.56     0  02:18           0        6.25       0.274
  WS02004403           JUNCTION      0.00   520.26     0  02:18           0        6.24       0.254
  WS02004404           JUNCTION      0.16   520.18     0  02:18     0.00457        6.22       0.197
  WS02004406           JUNCTION      0.00   519.97     0  02:18           0         6.2       0.481
  WS02004409           JUNCTION      0.00   519.75     0  02:19           0        6.16       0.205
  WS02004410           JUNCTION      0.00   518.07     0  02:19           0        6.15       0.242
  WS02004411           JUNCTION      0.00   516.65     0  02:21           0        6.13       0.254
  WS02004412           JUNCTION      0.00   515.98     0  02:21           0        6.12       0.284
  WS02004413           JUNCTION      0.00   515.83     0  02:21           0         6.1       0.431
  WS02004405           JUNCTION      0.04   520.01     0  02:18     0.00107        6.21       0.294
  WS02006109           JUNCTION      1.23   516.68     0  02:15      0.0347        6.31       0.249
  WS02006110           JUNCTION      0.00   516.68     0  02:15           0         6.3       0.240
  WS02006111           JUNCTION      0.00   535.84     0  02:15           0        6.27       0.049
  WS02006112           JUNCTION      9.91   529.50     0  02:16       0.054        6.33       0.395
  WS02006113           JUNCTION      0.00   516.87     0  02:16           0        6.28       0.096
  WS02006115           JUNCTION      0.00   530.09     0  02:17           0         6.3       0.240
  WS02006116           JUNCTION      0.00   523.19     0  02:17           0        6.29       0.237
  WS02006230           JUNCTION     10.28   339.74     0  03:12        0.29        4.66       0.253
  WS02006231           JUNCTION      0.00   327.86     0  03:12           0        4.38       0.082
  WS02006232           JUNCTION      0.00   327.78     0  03:12           0        4.39       0.261
  WS02006234           JUNCTION      0.00   326.82     0  03:11           0        4.39       0.066
  WS02006235           JUNCTION      0.00   326.23     0  03:11           0        4.42       0.174
  WS02006238           JUNCTION      0.00   234.56     0  03:10           0        1.67       0.241
  WS02006240           JUNCTION      0.00   232.27     0  03:09           0        1.65       0.246
  WS02006242           JUNCTION      0.00   231.19     0  03:08           0        1.65       0.275
  WS02006243           JUNCTION      0.00   230.76     0  03:03           0        1.63      -0.701
  WS02006245           JUNCTION      0.00   231.53     0  03:02           0        1.63       0.303
  WS02006247           JUNCTION      0.00   232.45     0  03:02           0        1.63       0.014
  WS02006248           JUNCTION      0.00   233.76     0  02:54           0        1.63      -0.233
  WS02006249           JUNCTION      0.00   235.17     0  02:54           0        1.63       0.413
  WS02006239           JUNCTION      0.00   233.54     0  03:10           0        1.66       0.289
  WS02006251           JUNCTION      0.08   240.40     0  02:10     0.00217        1.65      -0.042
  WS02006252           JUNCTION      0.00   200.00     0  02:50           0        1.32       0.005
  WS02006253           JUNCTION      1.33    51.15     0  01:49     0.00698       0.326       0.040
  WS02006256           JUNCTION      0.00   300.00     0  00:00           0        5.53       0.046
  WS02004138           JUNCTION      0.00   285.00     0  00:00           0        7.75       0.069
  WS02004407           JUNCTION      0.00   519.88     0  02:19           0        6.17       0.091
  WS02006228           JUNCTION      0.00   515.45     0  02:15           0        6.29       0.180
  WS02006229           JUNCTION      0.00   515.45     0  02:15           0         6.3       0.173
  WS02006280           JUNCTION      0.00   250.77     0  01:50           0        1.65       0.004
  WS02006284           JUNCTION      0.10   250.79     0  01:50      0.0027        1.65       0.063
  WS02006287           JUNCTION      0.00   250.70     0  01:50           0        1.65       0.044
  WSF200               JUNCTION      0.00   515.70     0  02:22           0        6.06       0.056
  HS02004901           JUNCTION     12.01    12.01     0  01:45      0.0649      0.0651       2.778
  HS02004881           JUNCTION      5.13    49.92     0  01:49      0.0283       0.303       0.058
  HS02004876           JUNCTION      9.09    44.88     0  01:50      0.0545       0.275       0.197
  HS02004870           JUNCTION      9.46    35.90     0  01:50      0.0537       0.221       0.049
  HS02004862           JUNCTION      8.62    26.77     0  01:51      0.0595       0.167       0.102
  HS02004856           JUNCTION      7.08    18.19     0  01:50      0.0404       0.109       1.338
  HS02004852           JUNCTION      0.00    11.37     0  01:51           0      0.0688       0.079
  HS02004848           JUNCTION     19.27    19.27     0  02:15       0.129       0.129       0.035
  HS02004842           JUNCTION      0.00     7.96     0  02:16           0      0.0735      21.475
  HS02004837           JUNCTION     22.22    28.76     0  01:50       0.273       0.333       0.244
  HS02004830           JUNCTION      0.15    28.90     0  01:51     0.00423       0.323       0.383
  HS02004824           JUNCTION     23.98    52.78     0  02:16       0.169       0.492       0.110
  HS02004817           JUNCTION      0.60    53.38     0  02:16      0.0169       0.508       3.394
  HS02004807           JUNCTION     17.56    68.44     0  02:16      0.0987        0.59       0.739
  HS02004802           JUNCTION      0.00    68.45     0  02:16           0       0.587       0.677
  HS02004799           JUNCTION     13.93   155.61     0  01:47      0.0799       0.915       0.289
  HS02004792           JUNCTION     59.81   141.74     0  01:47       0.341       0.835       0.049
  HS02004788           JUNCTION     20.81    82.40     0  01:48       0.158       0.496       0.079
  HS02004785           JUNCTION      0.15    61.69     0  01:47     0.00423       0.339       0.145
  HS02004777           JUNCTION      0.03    61.69     0  01:46    0.000846        0.34       1.552
  HS02004770           JUNCTION     50.05    61.90     0  01:46       0.278       0.341       0.915
  HS02004480           JUNCTION      0.00   184.53     0  01:48           0        1.08       0.104
  HS02004479           JUNCTION      0.00    29.01     0  01:50           0       0.176       0.417
  HS02004478           JUNCTION      0.00   250.68     0  01:49           0        1.65       0.021
  YS02001745           JUNCTION    196.14   255.18     0  02:33        1.98        1.98       0.577
  YS02001748           JUNCTION      0.04   421.80     0  02:12     0.00127        1.98       1.183
  YS02001751           JUNCTION      0.01   497.12     0  02:13     0.00031        1.96       1.195
  YS02001754           JUNCTION      0.26   215.26     0  02:16     0.00733        1.93       1.265
  YS02001762           JUNCTION      0.00   227.15     0  02:45           0        1.53       1.384
  YS02001765           JUNCTION      0.00   227.08     0  02:44           0        1.54       1.599
  YS02001767           JUNCTION      0.54   226.93     0  02:45      0.0151        1.56       2.331
  YS02001770           JUNCTION    237.12   247.20     0  03:30        2.24        2.34       1.349
  YS02001774           JUNCTION      0.00   247.96     0  03:29           0       0.879       2.930
  YS02001779           JUNCTION      0.01   248.49     0  03:29    0.000141       0.846       1.823
  YS02001882           JUNCTION      0.00    14.36     0  02:22           0      0.0176      13.420
  YS02001884           JUNCTION      0.00    24.54     0  02:15           0       0.053      12.050
  YS02001759           JUNCTION    224.87   442.76     0  02:46        2.06        3.47       0.655
  YS02001887           JUNCTION    272.70   272.70     0  02:58        2.39        2.42       0.333
  YS02001890           JUNCTION      0.00   268.47     0  03:00           0        2.38       0.371
  YS02001898           JUNCTION      0.00   269.60     0  02:19           0        2.36       0.115
  YS02001901           JUNCTION      0.00   271.56     0  02:20           0        2.36       0.277
  YS02001904           JUNCTION      0.00   267.47     0  02:19           0        2.36       0.252
  YS02001907           JUNCTION      0.00   526.52     0  03:06           0        5.21       0.450
  YS02001910           JUNCTION      0.00   267.75     0  03:09           0        2.86       0.393
  YS02001915           JUNCTION    170.88   264.86     0  03:05        1.67        2.86       0.196
  YS02001918           JUNCTION      0.00   108.64     0  03:16           0         1.2       0.142
  YS02001619           JUNCTION    167.73   167.73     0  03:01        1.65        1.65       0.731
  YS02001629           JUNCTION      0.00   216.93     0  02:16           0        1.57       1.823
  YS02001641           JUNCTION      0.00   352.45     0  02:59           0        3.43       0.610
  YS02001644           JUNCTION    187.26   899.96     0  03:04        1.91        8.37       0.314
  YS02001652           JUNCTION      0.00   271.91     0  02:24           0        1.73       1.340
  YS02001655           JUNCTION      0.15   392.56     0  02:10     0.00434        1.76       1.412
  YS02001920           JUNCTION      2.87   106.11     0  03:03      0.0809         1.2       0.228
  YS02001923           JUNCTION      0.04    91.49     0  03:01     0.00106        1.12       0.042
  YS02001926           JUNCTION      0.05    91.60     0  03:01     0.00147        1.12       0.282
  YS02001929           JUNCTION     91.59    91.59     0  03:01        1.12        1.12       0.041
  YS02001658           JUNCTION      0.00   609.69     0  02:25           0        1.81       1.227
  YS02001661           JUNCTION      0.00   595.78     0  02:42           0        2.43      -0.102
  YS02001664           JUNCTION    199.96   378.33     0  02:42        1.78         2.4       0.297
  YS02001622           JUNCTION      0.00   177.79     0  02:16           0        1.64       1.951
  YS02001633           JUNCTION    191.11   352.12     0  02:59        1.96        3.49       0.926
  YS02001649           JUNCTION      0.00   688.97     0  02:40           0        5.28       0.698
  YS02001757           JUNCTION      0.00  1282.41     0  02:40           0        7.61       1.223
  YS02001895           JUNCTION      0.00   268.03     0  02:22           0        2.37       0.201
  YS02001625           JUNCTION      0.00   216.78     0  02:16           0        1.61       2.466
  YS02163301           JUNCTION      0.00   182.78     0  02:24           0        1.55       1.563
  YS02163601           JUNCTION      0.11   352.13     0  02:59      0.0031        3.45       0.873
  YS02164001           JUNCTION      0.00   352.27     0  02:59           0        3.43       0.583
  YS02001647           JUNCTION      0.00   499.19     0  02:41           0        4.55       0.617
  YSB1154              JUNCTION     16.17    16.17     0  01:48       0.097      0.0978       1.500
  YSB6556              JUNCTION      0.00    16.24     0  01:49           0      0.0986       1.284
  YSB1174              JUNCTION     13.15    13.15     0  01:45      0.0704      0.0709       1.844
  YSB1171              JUNCTION      0.00    29.30     0  01:48           0       0.175       3.755
  YS02006553           JUNCTION      0.00   526.54     0  03:06           0         5.2       0.296
  YS02006561           JUNCTION      0.00   753.41     0  03:02           0        7.33       0.009
  YS02006556           JUNCTION      0.00   526.56     0  03:06           0         5.2       0.211
  YS02006558           JUNCTION    242.14   753.41     0  03:02        2.19        7.36       0.068
  YS02001783           JUNCTION      0.00   753.38     0  03:03           0        7.33       0.028
  YS02001784           JUNCTION      1.06   754.61     0  03:03      0.0299        7.36       0.045
  YS02001786           JUNCTION      0.06   754.51     0  03:03     0.00159        7.36       0.042
  YS02001788           JUNCTION      0.07   754.55     0  03:03       0.002        7.36       0.025
  YS02001790           JUNCTION      0.15   754.69     0  03:03     0.00437        7.36       0.029
  YS02001791           JUNCTION      0.00   754.87     0  03:03           0        7.36       0.015
  YS02001793           JUNCTION      0.00   754.83     0  03:03           0        7.36       0.002
  WS02004139           JUNCTION      0.32   290.40     0  00:00     0.00905        7.76       0.498
  WSC                  OUTFALL       0.00   822.56     0  02:25           0        14.3       0.000
  3                    OUTFALL       0.00   239.66     0  00:00           0        2.75       0.000
  4                    OUTFALL       0.00     0.00     0  00:00           0           0       0.000 ltr
  5                    OUTFALL       0.00     0.00     0  00:00           0           0       0.000 ltr
  JK-storage           STORAGE       0.00   942.78     0  02:16           0        7.51      -0.365
  CC-storage           STORAGE       0.00  1282.34     0  02:40           0         5.4       1.223
  XR-storage           STORAGE     519.52   519.52     0  03:01        8.98        9.58      -0.002
  
  
  **********************
  Node Surcharge Summary
  **********************
  
  Surcharging occurs when water rises above the top of the highest conduit.
  ---------------------------------------------------------------------
                                               Max. Height   Min. Depth
                                   Hours       Above Crown    Below Rim
  Node                 Type      Surcharged         Meters       Meters
  ---------------------------------------------------------------------
  WS02006109           JUNCTION        1.28          0.129        1.691
  WS02006112           JUNCTION        0.33          0.043        1.637
  WS02006232           JUNCTION        0.46          0.046        1.434
  WS02006228           JUNCTION        1.25          0.152        2.048
  YS02001748           JUNCTION        5.22          0.488        0.702
  YS02001751           JUNCTION        5.47          1.036        0.164
  YS02001754           JUNCTION        5.74          0.993        0.157
  YS02001762           JUNCTION        5.94          1.028        0.122
  YS02001765           JUNCTION        5.92          0.973        0.127
  YS02001767           JUNCTION        5.90          0.933        0.097
  YS02001770           JUNCTION        5.88          0.879        0.041
  YS02001774           JUNCTION        5.93          0.979        0.071
  YS02001779           JUNCTION        5.70          0.680        0.000
  YS02001759           JUNCTION        5.97          1.066        0.144
  YS02001890           JUNCTION        0.02          0.004        0.756
  YS02001907           JUNCTION        1.25          0.243        0.707
  YS02001910           JUNCTION        0.21          0.040        1.060
  YS02001619           JUNCTION        5.44          0.610        0.000
  YS02001629           JUNCTION        5.47          0.470        0.000
  YS02001641           JUNCTION        5.93          0.934        0.166
  YS02001644           JUNCTION        5.93          0.920        0.000
  YS02001652           JUNCTION        5.80          1.094        0.036
  YS02001655           JUNCTION        5.49          1.200        0.000
  YS02001658           JUNCTION        5.25          1.300        0.000
  YS02001661           JUNCTION        0.21          1.076        0.314
  YS02001622           JUNCTION        5.51          0.620        0.000
  YS02001633           JUNCTION        5.91          0.942        0.118
  YS02001649           JUNCTION        5.95          1.050        0.000
  YS02001757           JUNCTION        6.03          1.170        0.040
  YS02001625           JUNCTION        5.85          0.780        0.000
  YS02163301           JUNCTION        5.89          0.905        0.125
  YS02163601           JUNCTION        5.95          1.000        0.080
  YS02164001           JUNCTION        5.92          0.930        0.170
  YS02001647           JUNCTION        5.82          0.805        0.095
  YS02006553           JUNCTION        1.33          0.250        0.940
  YS02006556           JUNCTION        0.68          0.168        1.182
  YS02006558           JUNCTION        0.59          0.144        1.256
  YS02001783           JUNCTION        1.05          0.589        1.011
  YS02001784           JUNCTION        1.12          0.738        0.752
  YS02001786           JUNCTION        1.06          0.868        0.562
  YS02001788           JUNCTION        1.04          1.311        0.169
  YS02001790           JUNCTION        2.42          1.157        0.000
  YS02001791           JUNCTION        2.55          0.817        1.103
  YS02001793           JUNCTION        2.76          1.683        0.917
  
  
  *********************
  Node Flooding Summary
  *********************
  
  Flooding refers to all water that overflows a node, whether it ponds or not.
  --------------------------------------------------------------------------
                                                             Total   Maximum
                                 Maximum   Time of Max       Flood    Ponded
                        Hours       Rate    Occurrence      Volume     Depth
  Node                 Flooded       LPS   days hr:min    10^6 ltr    Meters
  --------------------------------------------------------------------------
  YS02001779              2.83    248.34      0  03:29       0.823     0.000
  YS02001619              0.01     17.35      0  02:28       0.000     0.000
  YS02001629              0.01     22.32      0  02:30       0.000     0.000
  YS02001644              5.12    899.96      0  03:04       6.847     0.000
  YS02001655              0.01    164.85      0  02:24       0.000     0.000
  YS02001658              0.01    314.50      0  02:26       0.001     0.000
  YS02001622              0.01     22.30      0  02:28       0.000     0.000
  YS02001649              0.06     38.25      0  02:46       0.003     0.000
  YS02001625              0.32     17.28      0  02:34       0.003     0.000
  YS02001790              0.01     86.04      0  02:19       0.000     0.000
  JK-storage              2.11    454.81      0  03:03       2.007     0.000
  XR-storage              2.83    329.52      0  03:01       1.089     0.000
  
  
  **********************
  Storage Volume Summary
  **********************
  
  --------------------------------------------------------------------------------------------------
                         Average     Avg  Evap Exfil       Maximum     Max    Time of Max    Maximum
                          Volume    Pcnt  Pcnt  Pcnt        Volume    Pcnt     Occurrence    Outflow
  Storage Unit           1000 m3    Full  Loss  Loss       1000 m3    Full    days hr:min        LPS
  --------------------------------------------------------------------------------------------------
  JK-storage               0.170      58     0     0         0.291     100       0  02:21     455.96
  CC-storage               3.016      19     0     0         3.846      25       0  03:24     200.00
  XR-storage               0.763      82     0     0         0.926     100       0  03:00     285.00
  
  
  ***********************
  Outfall Loading Summary
  ***********************
  
  -----------------------------------------------------------
                         Flow       Avg       Max       Total
                         Freq      Flow      Flow      Volume
  Outfall Node           Pcnt       LPS       LPS    10^6 ltr
  -----------------------------------------------------------
  WSC                   99.99    553.76    822.56      14.267
  3                     82.57    161.08    239.66       2.747
  4                      0.00      0.00      0.00       0.000
  5                      0.00      0.00      0.00       0.000
  -----------------------------------------------------------
  System                45.64    714.85   1005.59      17.014
  
  
  ********************
  Link Flow Summary
  ********************
  
  -----------------------------------------------------------------------------
                                 Maximum  Time of Max   Maximum    Max/    Max/
                                  |Flow|   Occurrence   |Veloc|    Full    Full
  Link                 Type          LPS  days hr:min     m/sec    Flow   Depth
  -----------------------------------------------------------------------------
  WS02003066WSF200     CONDUIT    515.70     0  02:22      2.69    0.09    0.23
  WS02006287WS02006284 CONDUIT    250.70     0  01:50      1.73    0.12    0.24
  WS02006284WS02006280 CONDUIT    250.77     0  01:50      1.97    0.11    0.22
  WS02006280WS02006229 CONDUIT    250.78     0  01:50      3.17    0.05    0.16
  WS02006229WS02006228 CONDUIT    515.45     0  02:15      1.03    1.71    1.00
  WS02006256WS02006235 CONDUIT    166.25     0  00:01      2.58    1.76    1.00
  WS02006253WS02006251 CONDUIT     54.96     0  02:14      0.53    0.16    0.65
  WS02006252WS02006251 CONDUIT    200.34     0  02:50      1.97    0.74    0.76
  WS02006251WS02006249 CONDUIT    235.17     0  02:54      0.96    0.68    0.65
  WS02006249WS02006248 CONDUIT    233.76     0  02:54      1.03    1.28    0.64
  WS02006248WS02006247 CONDUIT    232.45     0  03:02      0.99    0.51    0.67
  WS02006247WS02006245 CONDUIT    231.53     0  03:02      0.93    1.84    0.71
  WS02006245WS02006243 CONDUIT    230.76     0  03:03      1.00    0.68    0.73
  WS02006243WS02006242 CONDUIT    231.19     0  03:08      0.82    0.49    0.84
  WS02006242WS02006240 CONDUIT    232.27     0  03:09      0.69    0.92    0.90
  WS02006240WS02006239 CONDUIT    233.54     0  03:10      0.69    0.73    0.89
  WS02006239WS02006238 CONDUIT    234.56     0  03:10      0.67    0.75    0.98
  WS02006238WS02006235 CONDUIT    235.00     0  03:10      1.25    0.52    1.00
  WS02006235WS02006234 CONDUIT    326.82     0  03:11      0.94    3.45    0.95
  WS02006234WS02006232 CONDUIT    327.78     0  03:12      1.13    0.66    0.98
  WS02006232WS02006231 CONDUIT    327.86     0  03:12      0.93    0.69    0.94
  WS02006231WS02006230 CONDUIT    329.46     0  03:12      1.29    5.00    0.86
  WS02006230WS02006229 CONDUIT    341.90     0  03:12      0.89    7.61    1.00
  WS02006228WS02006109 CONDUIT    515.45     0  02:15      1.03    2.25    1.00
  WS02006116WS02004401 CONDUIT    521.43     0  02:18      0.75    0.72    0.83
  WS02006115WS02006116 CONDUIT    523.19     0  02:17      0.84    0.67    0.75
  WS02006113WS02006111 CONDUIT    535.84     0  02:15      2.43    0.64    0.45
  WS02006112WS02006115 CONDUIT    530.09     0  02:17      0.74    0.31    0.86
  WS02006111WS02006112 CONDUIT    521.31     0  02:16      1.46    0.25    0.67
  WS02006110WS02006113 CONDUIT    516.87     0  02:16      1.23    0.47    0.78
  WS02006109WS02006110 CONDUIT    516.68     0  02:15      1.03    0.99    1.00
  WS02004411WS02004412 CONDUIT    515.98     0  02:21      0.91    0.73    0.68
  WS02004401WS02004402 CONDUIT    520.56     0  02:18      0.77    0.62    0.85
  WS02004413WS02003067 CONDUIT    515.64     0  02:22      1.09    0.22    0.58
  WS02004412WS02004413 CONDUIT    515.83     0  02:21      0.80    0.35    0.77
  WS02004410WS02004411 CONDUIT    516.65     0  02:21      0.92    0.71    0.67
  WS02004409WS02004410 CONDUIT    518.07     0  02:19      0.95    0.67    0.66
  WS02004407WS02004409 CONDUIT    519.75     0  02:19      1.44    0.18    0.47
  WS02004406WS02004407 CONDUIT    519.88     0  02:19      1.02    0.23    0.62
  WS02004405WS02004406 CONDUIT    519.97     0  02:18      0.68    1.03    0.95
  WS02004404WS02004405 CONDUIT    519.97     0  02:18      0.84    5.09    0.95
  WS02004403WS02004404 CONDUIT    520.01     0  02:18      0.74    0.38    0.92
  WS02004402WS02004403 CONDUIT    520.26     0  02:18      0.75    0.75    0.87
  WS02004139WS02001211 CONDUIT    286.48     0  03:34      0.81    0.36    0.53
  WS02004138WS02004139 CONDUIT    290.07     0  00:00      3.33    0.06    0.39
  WS02003067WS02003066 CONDUIT    515.68     0  02:22      1.18    0.17    0.41
  WS02001213WS02003059 CONDUIT    299.09     0  03:32      0.80    0.49    0.72
  WS02001212WS02001213 CONDUIT    296.53     0  03:33      1.19    0.46    0.41
  WS02001211WS02001212 CONDUIT    295.22     0  03:34      0.67    0.23    0.58
  WS02003072WS02003073 CONDUIT    820.76     0  02:25      1.65    1.77    0.45
  WS02003069WS02003072 CONDUIT    820.76     0  02:24      1.55    0.40    0.47
  WS02003060WS02003069 CONDUIT    820.50     0  02:23      1.80    0.32    0.42
  WS02003059WS02003060 CONDUIT    302.69     0  03:32      0.82    0.20    0.62
  HS02004901HS02004770 CONDUIT     11.86     0  01:47      0.05    0.04    0.34
  HS02004876HS02004881 CONDUIT     44.96     0  01:50      0.68    0.48    0.09
  HS02004870HS02004876 CONDUIT     35.89     0  01:50      0.47    0.02    0.11
  HS02004842HS02004848 CONDUIT      7.96     0  02:16      0.04    0.00    0.28
  HS02004837HS02004842 CONDUIT      8.06     0  02:20      0.41    0.00    0.30
  HS02004830HS02004837 CONDUIT     28.75     0  01:51      0.48    0.03    0.09
  HS02004824HS02004830 CONDUIT     28.90     0  01:52      0.51    0.04    0.08
  HS02004817HS02004824 CONDUIT     52.78     0  02:16      0.18    0.02    0.42
  HS02004770HS02004777 CONDUIT     61.66     0  01:46      0.25    0.11    0.35
  HS02004799HS02004480 CONDUIT    155.54     0  01:47      0.65    0.20    0.34
  HS02004792HS02004799 CONDUIT    141.71     0  01:47      0.74    0.09    0.27
  HS02004788HS02004792 CONDUIT     82.36     0  01:48      0.88    0.05    0.13
  HS02004785HS02004788 CONDUIT     61.65     0  01:48      0.55    0.46    0.16
  HS02004777HS02004785 CONDUIT     61.54     0  01:47      0.30    0.08    0.29
  HS02004480HS02004478 CONDUIT    184.33     0  01:49      1.04    0.78    0.25
  HS02004479HS02004480 CONDUIT     29.23     0  01:51      0.28    0.03    0.33
  HS02004862HS02004870 CONDUIT     26.75     0  01:51      0.52    0.03    0.07
  HS02004848HS02004852 CONDUIT     11.37     0  01:51      0.35    0.01    0.05
  HS02004856HS02004862 CONDUIT     18.17     0  01:51      0.38    0.02    0.07
  HS02004852HS02004856 CONDUIT     11.35     0  01:52      0.16    0.01    0.10
  HS02004802HS02004478 CONDUIT     68.53     0  02:17      0.36    0.06    0.28
  HS02004478WS02006287 CONDUIT    250.70     0  01:50      1.43    0.07    0.19
  HS02004817HS02004807 CONDUIT     53.46     0  02:17      0.14    0.03    0.54
  HS02004807HS02004802 CONDUIT     68.45     0  02:16      0.30    0.13    0.33
  YS02001759YS02001757 CONDUIT    442.57     0  02:45      0.56    0.31    1.00
  YS02001762YS02001759 CONDUIT    227.16     0  02:45      0.29    0.26    1.00
  YS02001765YS02001762 CONDUIT    227.15     0  02:45      0.29    0.21    1.00
  YS02001770YS02001767 CONDUIT    226.40     0  02:45      0.38    0.90    1.00
  YS02001774YS02001770 CONDUIT    247.96     0  03:29      0.32    0.16    1.00
  YS02001779YS02001774 CONDUIT    248.49     0  03:29      0.32    0.13    1.00
  YS02001649YS02001757 CONDUIT    688.91     0  02:40      0.88    0.42    1.00
  YS02001767YS02001765 CONDUIT    227.08     0  02:44      0.35    0.29    1.00
  YS02006561YS02001783 CONDUIT    753.38     0  03:03      2.11    0.39    0.85
  YS02001783YS02001784 CONDUIT    753.55     0  03:03      1.58    1.04    1.00
  YS02001784YS02001785 CONDUIT    754.46     0  03:03      1.70    1.76    1.00
  YS02001788YS02001790 CONDUIT    754.53     0  03:03      2.24    0.56    1.00
  YS02001790YS02001791 CONDUIT    754.87     0  03:03      2.66    0.82    1.00
  YS02001791YS02001793 CONDUIT    754.83     0  03:03      5.35    0.32    1.00
  YS02001910YS02001907 CONDUIT    269.09     0  03:12      0.49    0.15    1.00
  YS02001786YS02001788 CONDUIT    754.48     0  03:03      2.14    1.45    1.00
  YS02001915YS02001910 CONDUIT    267.75     0  03:09      0.56    0.13    0.92
  YS02001918YS02001915 CONDUIT    111.10     0  03:17      0.44    0.06    0.66
  YS02001923YS02001920 CONDUIT    103.24     0  03:03      0.64    0.05    0.42
  YS02001926YS02001923 CONDUIT     91.45     0  03:01      0.74    0.13    0.21
  YS02001929YS02001926 CONDUIT     91.54     0  03:01      0.81    0.04    0.20
  YS02001920YS02001918 CONDUIT    108.64     0  03:16      0.63    0.11    0.52
  YS02001629YS02163301 CONDUIT    182.78     0  02:24      0.23    0.23    1.00
  YS02001619YS02001622 CONDUIT    177.79     0  02:16      0.65    0.26    1.00
  YS02001622YS02001625 CONDUIT    216.78     0  02:16      0.32    0.12    1.00
  YS02001625YS02001629 CONDUIT    216.93     0  02:16      0.28    0.10    1.00
  YS02163301YS02001633 CONDUIT    182.78     0  02:24      0.23    0.17    1.00
  YS02163601YS02164001 CONDUIT    352.27     0  02:59      0.45    0.31    1.00
  YS02164001YS02001641 CONDUIT    352.45     0  02:59      0.45    0.48    1.00
  YS02001641YS02001644 CONDUIT    352.33     0  02:59      0.45    1.14    1.00
  YS02001647YS02001649 CONDUIT    499.33     0  02:41      0.64    0.26    1.00
  YS02006553YS02006556 CONDUIT    526.56     0  03:06      0.67    0.45    1.00
  YS02006556YS02006558 CONDUIT    526.60     0  03:06      0.67    0.42    1.00
  YSB6556YSB1171       CONDUIT     16.50     0  01:50      0.07    0.02    0.60
  YS02001907YS02006553 CONDUIT    526.54     0  03:06      0.59    0.62    1.00
  YS02006558YS02006561 CONDUIT    753.41     0  03:02      3.19    1.67    0.97
  YS02001633YS02163601 CONDUIT    352.02     0  02:59      0.45    0.37    1.00
  YS02001644YS02001647 CONDUIT    499.19     0  02:41      0.64    0.29    1.00
  YS02001745YS02001748 CONDUIT    416.85     0  02:33      1.51    0.16    0.94
  YS02001748YS02001751 CONDUIT    497.11     0  02:13      1.12    0.25    1.00
  YS02001751YS02001754 CONDUIT    215.00     0  02:16      0.97    0.10    1.00
  YS02001754YS02001757 CONDUIT    218.52     0  02:16      0.33    0.09    1.00
  YS02001882YS02001884 CONDUIT     16.91     0  02:16      0.12    0.02    0.86
  YS02001884YS02001887 CONDUIT     25.68     0  02:15      0.09    0.03    0.96
  YS02001890YS02001895 CONDUIT    268.03     0  02:22      0.44    0.12    0.90
  YS02001895YS02001898 CONDUIT    269.60     0  02:19      0.57    0.47    0.79
  YS02001898YS02001901 CONDUIT    271.56     0  02:20      0.50    0.18    0.88
  YS02001901YS02001904 CONDUIT    267.47     0  02:19      0.45    0.41    0.93
  YS02001904YS02001907 CONDUIT    268.70     0  02:21      0.38    0.09    0.96
  YS02001887YS02001890 CONDUIT    268.47     0  03:00      0.39    0.46    1.00
  YS02001652YS02001649 CONDUIT    271.88     0  02:24      0.58    0.13    1.00
  YS02001655YS02001652 CONDUIT    271.91     0  02:24      1.05    0.13    1.00
  YS02001658YS02001655 CONDUIT    392.41     0  02:10      1.29    0.17    1.00
  YS02001661YS02001658 CONDUIT    609.69     0  02:25      1.59    0.24    1.00
  YS02001664YS02001661 CONDUIT    595.78     0  02:42      1.43    0.19    0.71
  YSB1154YSB6556       CONDUIT     16.24     0  01:49      0.16    0.03    0.49
  YSB1174YSB1171       CONDUIT     13.23     0  01:45      0.06    0.02    0.61
  YSB1171HS02004479    CONDUIT     29.01     0  01:50      0.54    0.02    0.47
  HS02004881HS02006253 CONDUIT     49.92     0  01:50      1.83    0.01    0.11
  YS02001793JiankangQianchi CONDUIT    942.78     0  02:16     13.02    0.07    1.00
  YS02001757CaochengTiaoxuchi CONDUIT   1282.34     0  02:40      1.80    0.56    1.00
  WSF200WS02003060     CONDUIT    515.79     0  02:22      1.71    0.11    0.32
  1                    CONDUIT    822.56     0  02:25      3.16    0.29    0.37
  2                    CONDUIT      0.00     0  00:00      0.00    0.00    0.00
  3                    CONDUIT    239.66     0  00:00      8.18    0.38    0.45
  4                    CONDUIT      0.00     0  00:00      0.00    0.00    0.00
  CC-Pump-1            PUMP         0.00     0  00:00              0.00
  CC-Pump-2            PUMP       200.00     0  02:50              1.00
  JK-Pump-1            PUMP         0.00     0  00:00              0.00
  JK-Pump-2            PUMP       300.00     0  00:00              1.00
  XR-Pump-1            PUMP        95.00     0  00:00              1.00
  XR-Pump-2            PUMP        95.00     0  00:00              1.00
  XR-Pump-3            PUMP         0.00     0  00:00              0.00
  XR-Pump-4            PUMP        95.00     0  00:00              1.00
  
  
  ***************************
  Flow Classification Summary
  ***************************
  
  -------------------------------------------------------------------------------------
                      Adjusted    ---------- Fraction of Time in Flow Class ---------- 
                       /Actual         Up    Down  Sub   Sup   Up    Down  Norm  Inlet 
  Conduit               Length    Dry  Dry   Dry   Crit  Crit  Crit  Crit  Ltd   Ctrl  
  -------------------------------------------------------------------------------------
  WS02003066WSF200        1.00   0.07  0.00  0.00  0.00  0.93  0.00  0.00  0.72  0.00
  WS02006287WS02006284    1.00   0.04  0.01  0.00  0.54  0.41  0.00  0.00  0.70  0.00
  WS02006284WS02006280    1.00   0.05  0.00  0.00  0.00  0.00  0.00  0.95  0.00  0.00
  WS02006280WS02006229    1.00   0.05  0.00  0.00  0.00  0.00  0.00  0.95  0.00  0.00
  WS02006229WS02006228    1.00   0.00  0.00  0.00  0.98  0.00  0.00  0.02  0.00  0.00
  WS02006256WS02006235    1.00   0.00  0.00  0.00  1.00  0.00  0.00  0.00  0.00  0.00
  WS02006253WS02006251    1.00   0.03  0.01  0.00  0.95  0.00  0.00  0.00  0.00  0.00
  WS02006252WS02006251    1.00   0.13  0.00  0.00  0.00  0.00  0.87  0.00  0.00  0.00
  WS02006251WS02006249    1.00   0.00  0.00  0.00  1.00  0.00  0.00  0.00  0.48  0.00
  WS02006249WS02006248    1.00   0.00  0.02  0.00  0.59  0.00  0.38  0.00  0.00  0.00
  WS02006248WS02006247    1.00   0.03  0.00  0.00  0.97  0.00  0.00  0.00  0.40  0.00
  WS02006247WS02006245    1.00   0.02  0.00  0.00  0.97  0.00  0.00  0.00  0.00  0.00
  WS02006245WS02006243    1.00   0.01  0.00  0.00  0.95  0.00  0.00  0.03  0.03  0.00
  WS02006243WS02006242    1.00   0.01  0.00  0.00  0.99  0.00  0.00  0.00  0.17  0.00
  WS02006242WS02006240    1.00   0.00  0.00  0.00  0.99  0.00  0.00  0.00  0.00  0.00
  WS02006240WS02006239    1.00   0.00  0.00  0.00  0.96  0.00  0.00  0.03  0.01  0.00
  WS02006239WS02006238    1.00   0.00  0.00  0.00  1.00  0.00  0.00  0.00  0.01  0.00
  WS02006238WS02006235    1.00   0.00  0.00  0.00  1.00  0.00  0.00  0.00  0.00  0.00
  WS02006235WS02006234    1.00   0.00  0.00  0.00  0.96  0.00  0.04  0.00  0.00  0.00
  WS02006234WS02006232    1.00   0.00  0.00  0.00  1.00  0.00  0.00  0.00  0.08  0.00
  WS02006232WS02006231    1.00   0.00  0.00  0.00  0.99  0.00  0.01  0.00  0.00  0.00
  WS02006231WS02006230    1.00   0.00  0.00  0.00  0.32  0.00  0.67  0.00  0.00  0.00
  WS02006230WS02006229    1.00   0.00  0.00  0.00  0.98  0.00  0.00  0.02  0.01  0.00
  WS02006228WS02006109    1.00   0.00  0.00  0.00  1.00  0.00  0.00  0.00  0.00  0.00
  WS02006116WS02004401    1.00   0.03  0.00  0.00  0.97  0.00  0.00  0.00  0.00  0.00
  WS02006115WS02006116    1.00   0.03  0.00  0.00  0.96  0.00  0.00  0.01  0.00  0.00
  WS02006113WS02006111    1.00   0.02  0.00  0.00  0.00  0.98  0.00  0.00  0.19  0.00
  WS02006112WS02006115    1.00   0.03  0.00  0.00  0.97  0.00  0.00  0.00  0.00  0.00
  WS02006111WS02006112    1.00   0.03  0.00  0.00  0.97  0.00  0.00  0.00  0.98  0.00
  WS02006110WS02006113    1.00   0.01  0.01  0.00  0.98  0.00  0.00  0.00  0.00  0.00
  WS02006109WS02006110    1.00   0.00  0.01  0.00  0.98  0.00  0.01  0.00  0.00  0.00
  WS02004411WS02004412    1.00   0.04  0.00  0.00  0.96  0.00  0.00  0.00  0.00  0.00
  WS02004401WS02004402    1.00   0.03  0.00  0.00  0.97  0.00  0.00  0.00  0.00  0.00
  WS02004413WS02003067    1.00   0.05  0.02  0.00  0.00  0.00  0.94  0.00  0.00  0.00
  WS02004412WS02004413    1.00   0.05  0.00  0.00  0.95  0.00  0.00  0.00  0.03  0.00
  WS02004410WS02004411    1.00   0.04  0.00  0.00  0.96  0.00  0.00  0.00  0.03  0.00
  WS02004409WS02004410    1.00   0.04  0.00  0.00  0.96  0.00  0.00  0.00  0.01  0.00
  WS02004407WS02004409    1.00   0.04  0.00  0.00  0.95  0.00  0.00  0.00  0.89  0.00
  WS02004406WS02004407    1.00   0.00  0.04  0.00  0.96  0.00  0.00  0.00  0.00  0.00
  WS02004405WS02004406    1.00   0.00  0.00  0.00  1.00  0.00  0.00  0.00  0.00  0.00
  WS02004404WS02004405    1.00   0.00  0.00  0.00  1.00  0.00  0.00  0.00  0.00  0.00
  WS02004403WS02004404    1.00   0.00  0.03  0.00  0.97  0.00  0.00  0.00  0.01  0.00
  WS02004402WS02004403    1.00   0.03  0.00  0.00  0.97  0.00  0.00  0.00  0.00  0.00
  WS02004139WS02001211    1.00   0.00  0.00  0.00  1.00  0.00  0.00  0.00  0.00  0.00
  WS02004138WS02004139    1.00   0.00  0.00  0.00  0.99  0.01  0.00  0.00  1.00  0.00
  WS02003067WS02003066    1.00   0.06  0.01  0.00  0.93  0.00  0.00  0.00  0.00  0.00
  WS02001213WS02003059    1.00   0.00  0.00  0.00  0.99  0.00  0.00  0.00  0.00  0.00
  WS02001212WS02001213    1.00   0.00  0.00  0.00  0.67  0.00  0.32  0.00  0.00  0.00
  WS02001211WS02001212    1.00   0.00  0.00  0.00  1.00  0.00  0.00  0.00  0.00  0.00
  WS02003072WS02003073    1.00   0.00  0.00  0.00  0.00  0.00  0.00  1.00  0.00  0.00
  WS02003069WS02003072    1.00   0.00  0.00  0.00  0.99  0.01  0.00  0.00  0.20  0.00
  WS02003060WS02003069    1.00   0.00  0.00  0.00  0.98  0.02  0.00  0.00  0.00  0.00
  WS02003059WS02003060    1.00   0.00  0.00  0.00  1.00  0.00  0.00  0.00  0.01  0.00
  HS02004901HS02004770    1.00   0.05  0.00  0.00  0.95  0.00  0.00  0.00  0.00  0.00
  HS02004876HS02004881    1.00   0.03  0.00  0.00  0.97  0.00  0.00  0.00  0.00  0.00
  HS02004870HS02004876    1.00   0.01  0.00  0.00  0.99  0.00  0.00  0.00  0.95  0.00
  HS02004842HS02004848    1.00   0.00  0.05  0.00  0.95  0.00  0.00  0.00  0.58  0.00
  HS02004837HS02004842    1.00   0.00  0.00  0.00  0.99  0.01  0.00  0.00  0.11  0.00
  HS02004830HS02004837    1.00   0.00  0.00  0.00  1.00  0.00  0.00  0.00  0.99  0.00
  HS02004824HS02004830    1.00   0.00  0.00  0.00  1.00  0.00  0.00  0.00  0.00  0.00
  HS02004817HS02004824    1.00   0.00  0.00  0.00  1.00  0.00  0.00  0.00  1.00  0.00
  HS02004770HS02004777    1.00   0.00  0.05  0.00  0.95  0.00  0.00  0.00  0.03  0.00
  HS02004799HS02004480    1.00   0.00  0.03  0.00  0.94  0.00  0.02  0.00  0.00  0.00
  HS02004792HS02004799    1.00   0.00  0.00  0.00  0.98  0.02  0.00  0.00  0.98  0.00
  HS02004788HS02004792    1.00   0.00  0.00  0.00  0.99  0.01  0.00  0.00  0.98  0.00
  HS02004785HS02004788    1.00   0.00  0.00  0.00  1.00  0.00  0.00  0.00  0.00  0.00
  HS02004777HS02004785    1.00   0.00  0.00  0.00  1.00  0.00  0.00  0.00  0.12  0.00
  HS02004480HS02004478    1.00   0.05  0.00  0.00  0.59  0.00  0.00  0.36  0.00  0.00
  HS02004479HS02004480    1.00   0.03  0.00  0.00  0.97  0.00  0.00  0.00  0.12  0.00
  HS02004862HS02004870    1.00   0.00  0.00  0.00  1.00  0.00  0.00  0.00  0.04  0.00
  HS02004848HS02004852    1.00   0.05  0.00  0.00  0.95  0.00  0.00  0.00  0.77  0.00
  HS02004856HS02004862    1.00   0.00  0.06  0.00  0.94  0.00  0.00  0.00  0.83  0.00
  HS02004852HS02004856    1.00   0.05  0.00  0.00  0.95  0.00  0.00  0.00  0.86  0.00
  HS02004802HS02004478    1.00   0.05  0.00  0.00  0.95  0.00  0.00  0.00  0.03  0.00
  HS02004478WS02006287    1.00   0.06  0.00  0.00  0.68  0.27  0.00  0.00  0.68  0.00
  HS02004817HS02004807    1.00   0.00  0.05  0.00  0.95  0.00  0.00  0.00  0.01  0.00
  HS02004807HS02004802    1.00   0.05  0.00  0.00  0.95  0.00  0.00  0.00  0.00  0.00
  YS02001759YS02001757    1.00   0.00  0.00  0.00  1.00  0.00  0.00  0.00  0.16  0.00
  YS02001762YS02001759    1.00   0.00  0.00  0.00  1.00  0.00  0.00  0.00  0.03  0.00
  YS02001765YS02001762    1.00   0.00  0.00  0.00  1.00  0.00  0.00  0.00  0.14  0.00
  YS02001770YS02001767    1.00   0.00  0.00  0.00  1.00  0.00  0.00  0.00  0.00  0.00
  YS02001774YS02001770    1.00   0.00  0.05  0.00  0.95  0.00  0.00  0.00  0.03  0.00
  YS02001779YS02001774    1.00   0.00  0.00  0.00  1.00  0.00  0.00  0.00  0.18  0.00
  YS02001649YS02001757    1.00   0.00  0.00  0.00  1.00  0.00  0.00  0.00  0.16  0.00
  YS02001767YS02001765    1.00   0.00  0.00  0.00  1.00  0.00  0.00  0.00  0.00  0.00
  YS02006561YS02001783    1.00   0.06  0.00  0.00  0.42  0.52  0.00  0.00  0.61  0.00
  YS02001783YS02001784    1.00   0.00  0.06  0.00  0.94  0.00  0.00  0.00  0.00  0.00
  YS02001784YS02001785    1.00   0.00  0.00  0.00  1.00  0.00  0.00  0.00  0.17  0.00
  YS02001788YS02001790    1.00   0.00  0.00  0.00  0.54  0.46  0.00  0.00  0.53  0.00
  YS02001790YS02001791    1.00   0.00  0.00  0.00  0.50  0.50  0.00  0.00  0.44  0.00
  YS02001791YS02001793    1.00   0.00  0.00  0.00  0.52  0.48  0.00  0.00  0.02  0.00
  YS02001910YS02001907    1.00   0.00  0.00  0.00  0.97  0.00  0.00  0.03  0.12  0.00
  YS02001786YS02001788    1.00   0.00  0.00  0.00  0.51  0.49  0.00  0.00  0.00  0.00
  YS02001915YS02001910    1.00   0.00  0.00  0.00  0.98  0.02  0.00  0.00  0.16  0.00
  YS02001918YS02001915    1.00   0.00  0.01  0.00  0.98  0.02  0.00  0.00  0.60  0.00
  YS02001923YS02001920    1.00   0.00  0.00  0.00  1.00  0.00  0.00  0.00  0.93  0.00
  YS02001926YS02001923    1.00   0.00  0.04  0.00  0.00  0.00  0.96  0.00  0.00  0.00
  YS02001929YS02001926    1.00   0.00  0.05  0.00  0.95  0.00  0.00  0.00  0.87  0.00
  YS02001920YS02001918    1.00   0.00  0.01  0.00  0.99  0.00  0.00  0.00  0.00  0.00
  YS02001629YS02163301    1.00   0.05  0.00  0.00  0.94  0.00  0.00  0.00  0.00  0.00
  YS02001619YS02001622    1.00   0.05  0.00  0.00  0.95  0.00  0.00  0.00  0.00  0.00
  YS02001622YS02001625    1.00   0.05  0.00  0.00  0.95  0.00  0.00  0.00  0.04  0.00
  YS02001625YS02001629    1.00   0.05  0.01  0.00  0.93  0.00  0.01  0.00  0.00  0.00
  YS02163301YS02001633    1.00   0.00  0.05  0.00  0.95  0.00  0.00  0.00  0.00  0.00
  YS02163601YS02164001    1.00   0.00  0.04  0.00  0.96  0.00  0.00  0.00  0.00  0.00
  YS02164001YS02001641    1.00   0.01  0.03  0.00  0.96  0.00  0.00  0.00  0.06  0.00
  YS02001641YS02001644    1.00   0.00  0.01  0.00  0.99  0.00  0.00  0.00  0.00  0.00
  YS02001647YS02001649    1.00   0.00  0.06  0.00  0.94  0.00  0.00  0.00  0.01  0.00
  YS02006553YS02006556    1.00   0.02  0.00  0.00  0.98  0.00  0.00  0.00  0.03  0.00
  YS02006556YS02006558    1.00   0.00  0.00  0.00  1.00  0.00  0.00  0.00  0.00  0.00
  YSB6556YSB1171          1.00   0.03  0.02  0.00  0.95  0.00  0.00  0.00  0.00  0.00
  YS02001907YS02006553    1.00   0.00  0.02  0.00  0.97  0.00  0.00  0.00  0.00  0.00
  YS02006558YS02006561    1.00   0.06  0.00  0.00  0.08  0.86  0.00  0.00  0.53  0.00
  YS02001633YS02163601    1.00   0.00  0.01  0.00  0.99  0.00  0.00  0.00  0.15  0.00
  YS02001644YS02001647    1.00   0.00  0.06  0.00  0.94  0.00  0.00  0.00  0.00  0.00
  YS02001745YS02001748    1.00   0.00  0.00  0.00  0.89  0.01  0.00  0.10  0.04  0.00
  YS02001748YS02001751    1.00   0.00  0.00  0.00  0.98  0.02  0.00  0.00  0.14  0.00
  YS02001751YS02001754    1.00   0.00  0.00  0.00  0.93  0.00  0.00  0.06  0.02  0.00
  YS02001754YS02001757    1.00   0.00  0.00  0.00  0.99  0.01  0.00  0.00  0.18  0.00
  YS02001882YS02001884    1.00   0.05  0.00  0.00  0.94  0.00  0.00  0.00  0.00  0.00
  YS02001884YS02001887    1.00   0.04  0.01  0.00  0.95  0.00  0.00  0.00  0.00  0.00
  YS02001890YS02001895    1.00   0.00  0.05  0.00  0.94  0.00  0.00  0.00  0.00  0.00
  YS02001895YS02001898    1.00   0.06  0.00  0.00  0.94  0.00  0.01  0.00  0.00  0.00
  YS02001898YS02001901    1.00   0.06  0.00  0.00  0.94  0.00  0.00  0.00  0.01  0.00
  YS02001901YS02001904    1.00   0.06  0.00  0.00  0.94  0.00  0.00  0.00  0.00  0.00
  YS02001904YS02001907    1.00   0.00  0.05  0.00  0.94  0.00  0.00  0.00  0.00  0.00
  YS02001887YS02001890    1.00   0.00  0.00  0.00  0.97  0.00  0.03  0.00  0.00  0.00
  YS02001652YS02001649    1.00   0.00  0.00  0.00  1.00  0.00  0.00  0.00  0.16  0.00
  YS02001655YS02001652    1.00   0.00  0.00  0.00  0.93  0.00  0.00  0.06  0.02  0.00
  YS02001658YS02001655    1.00   0.00  0.05  0.00  0.93  0.02  0.00  0.00  0.05  0.00
  YS02001661YS02001658    1.00   0.05  0.00  0.00  0.89  0.06  0.00  0.00  0.04  0.00
  YS02001664YS02001661    1.00   0.05  0.00  0.00  0.86  0.09  0.00  0.00  0.20  0.00
  YSB1154YSB6556          1.00   0.05  0.00  0.00  0.95  0.00  0.00  0.00  0.02  0.00
  YSB1174YSB1171          1.00   0.03  0.01  0.00  0.96  0.00  0.00  0.00  0.00  0.00
  YSB1171HS02004479       1.00   0.03  0.00  0.00  0.97  0.00  0.00  0.00  0.10  0.00
  HS02004881HS02006253    1.00   0.03  0.00  0.00  0.21  0.04  0.00  0.71  0.18  0.00
  YS02001793JiankangQianchi    1.00   0.00  0.00  0.00  0.70  0.30  0.00  0.00  0.14  0.00
  YS02001757CaochengTiaoxuchi    1.00   0.00  0.07  0.00  0.93  0.00  0.00  0.00  0.00  0.00
  WSF200WS02003060        1.00   0.00  0.07  0.00  0.87  0.05  0.00  0.00  0.56  0.00
  1                       1.00   0.00  0.00  0.00  0.00  1.00  0.00  0.00  0.34  0.00
  2                       1.00   1.00  0.00  0.00  0.00  0.00  0.00  0.00  0.00  0.00
  3                       1.00   0.17  0.00  0.00  0.00  0.83  0.00  0.00  0.19  0.00
  4                       1.00   1.00  0.00  0.00  0.00  0.00  0.00  0.00  0.00  0.00
  
  
  *************************
  Conduit Surcharge Summary
  *************************
  
  ----------------------------------------------------------------------------
                                                           Hours        Hours 
                         --------- Hours Full --------   Above Full   Capacity
  Conduit                Both Ends  Upstream  Dnstream   Normal Flow   Limited
  ----------------------------------------------------------------------------
  WS02006229WS02006228        1.25      1.31      1.25      2.06         1.25
  WS02006256WS02006235        6.33      6.34      6.91      5.60         0.01
  WS02006249WS02006248        0.01      0.01      0.01      0.82         0.01
  WS02006247WS02006245        0.01      0.01      0.01      1.63         0.01
  WS02006238WS02006235        0.01      0.01      0.21      0.01         0.01
  WS02006235WS02006234        0.01      0.01      0.01      6.35         0.01
  WS02006234WS02006232        0.01      0.01      0.46      0.01         0.01
  WS02006232WS02006231        0.01      0.01      0.46      0.01         0.01
  WS02006231WS02006230        0.01      0.01      0.01      6.35         0.01
  WS02006230WS02006229        1.66      1.84      1.66      6.43         1.66
  WS02006228WS02006109        1.28      1.50      1.28      3.18         1.28
  WS02006112WS02006115        0.01      0.01      0.33      0.01         0.01
  WS02006111WS02006112        0.01      0.01      2.09      0.01         0.01
  WS02006110WS02006113        0.01      0.01      1.38      0.01         0.01
  WS02006109WS02006110        0.01      0.01      1.50      0.01         0.01
  WS02004405WS02004406        0.01      0.01      0.01      0.11         0.01
  WS02004404WS02004405        0.01      0.01      0.01      6.25         0.01
  WS02003072WS02003073        0.01      0.01      0.01      5.15         0.01
  YS02001759YS02001757        5.97      5.97      6.03      0.01         0.01
  YS02001762YS02001759        5.94      5.94      5.97      0.01         0.01
  YS02001765YS02001762        5.92      5.92      5.94      0.01         0.01
  YS02001770YS02001767        5.90      5.90      5.90      0.01         0.71
  YS02001774YS02001770        5.88      5.88      5.93      0.01         0.01
  YS02001779YS02001774        5.70      5.70      5.93      0.01         0.01
  YS02001649YS02001757        5.95      5.95      6.03      0.01         0.01
  YS02001767YS02001765        5.90      5.90      5.92      0.01         0.01
  YS02006561YS02001783        0.01      0.01      1.05      0.01         0.01
  YS02001783YS02001784        1.05      1.05      1.12      0.31         0.29
  YS02001784YS02001785        1.06      1.12      1.06      1.90         1.06
  YS02001788YS02001790        1.04      1.04      2.42      0.01         0.01
  YS02001790YS02001791        2.42      2.42      2.55      0.01         0.01
  YS02001791YS02001793        2.55      2.55      2.83      0.01         0.01
  YS02001910YS02001907        0.21      0.21      1.25      0.01         0.01
  YS02001786YS02001788        1.03      1.06      1.04      1.48         1.03
  YS02001915YS02001910        0.01      0.01      0.21      0.01         0.01
  YS02001629YS02163301        5.88      5.88      5.89      0.01         0.01
  YS02001619YS02001622        5.44      5.44      5.51      0.01         0.02
  YS02001622YS02001625        5.51      5.51      5.85      0.01         0.01
  YS02001625YS02001629        5.47      5.47      5.85      0.01         0.01
  YS02163301YS02001633        5.89      5.89      5.92      0.01         0.01
  YS02163601YS02164001        5.92      5.92      5.95      0.01         0.01
  YS02164001YS02001641        5.92      5.92      5.93      0.01         0.02
  YS02001641YS02001644        5.93      5.93      5.93      0.74         1.09
  YS02001647YS02001649        5.82      5.82      5.95      0.01         0.01
  YS02006553YS02006556        0.68      0.68      1.33      0.01         0.01
  YS02006556YS02006558        1.02      1.02      1.42      0.01         0.01
  YS02001907YS02006553        1.92      1.92      2.14      0.01         0.01
  YS02006558YS02006561        0.01      0.59      0.01      1.76         0.01
  YS02001633YS02163601        5.91      5.91      5.95      0.01         0.01
  YS02001644YS02001647        5.82      5.82      5.93      0.01         0.01
  YS02001745YS02001748        0.01      0.01      5.22      0.01         0.01
  YS02001748YS02001751        5.28      5.28      5.47      0.01         0.01
  YS02001751YS02001754        5.47      5.47      5.74      0.01         0.01
  YS02001754YS02001757        5.81      5.81      6.03      0.01         0.01
  YS02001890YS02001895        0.01      0.01      0.26      0.01         0.01
  YS02001904YS02001907        0.01      0.01      1.36      0.01         0.01
  YS02001887YS02001890        0.02      0.02      0.15      0.01         0.01
  YS02001652YS02001649        5.84      5.84      5.95      0.01         0.01
  YS02001655YS02001652        5.49      5.49      5.80      0.01         0.01
  YS02001658YS02001655        5.25      5.25      5.49      0.01         0.01
  YS02001661YS02001658        0.19      0.19      5.25      0.01         0.01
  YS02001664YS02001661        0.01      0.01      1.08      0.01         0.01
  YS02001793JiankangQianchi        2.76      2.76      3.80      0.01         0.01
  YS02001757CaochengTiaoxuchi        5.19      5.19      6.03      0.01         0.01
  
  
  ***************
  Pumping Summary
  ***************
  
  ---------------------------------------------------------------------------------------------------------
                                                  Min       Avg       Max     Total     Power    % Time Off
                        Percent   Number of      Flow      Flow      Flow    Volume     Usage    Pump Curve
  Pump                 Utilized   Start-Ups       LPS       LPS       LPS  10^6 ltr     Kw-hr    Low   High
  ---------------------------------------------------------------------------------------------------------
  CC-Pump-1                0.00           0      0.00      0.00      0.00     0.000      0.00    0.0    0.0
  CC-Pump-2               40.41           6      0.00    121.93    200.00     1.320      1.06    0.0    4.1
  JK-Pump-1                0.00           0      0.00      0.00      0.00     0.000      0.00    0.0    0.0
  JK-Pump-2              100.00           1      0.00    248.75    300.00     5.528     52.12    0.0    0.0
  XR-Pump-1              100.00           1      0.00     95.00     95.00     2.679     25.73    0.0    0.0
  XR-Pump-2              100.00           1      0.00     95.00     95.00     2.679     25.73    0.0    0.0
  XR-Pump-3                0.00           0      0.00      0.00      0.00     0.000      0.00    0.0    0.0
  XR-Pump-4               95.74           4      0.00     86.17     95.00     2.394     24.39    0.0    0.0
  

  Analysis begun on:  Wed Jan  5 16:03:00 2022
  Analysis ended on:  Wed Jan  5 16:03:04 2022
  Total elapsed time: 00:00:04