
  EPA STORM WATER MANAGEMENT MODEL - VERSION 5.1 (Build 5.3.0.dev0)
  --------------------------------------------------------------

  WARNING 04: minimum elevation drop used for Conduit WS02004404WS02004405
  WARNING 03: negative offset ignored for Link YS02001904YS02001907
  
  *********************************************************
  NOTE: The summary statistics displayed in this report are
  based on results found at every computational time step,  
  not just on results from each reporting time step.
  *********************************************************
  
  ****************
  Analysis Options
  ****************
  Flow Units ............... LPS
  Process Models:
    Rainfall/Runoff ........ YES
    RDII ................... NO
    Snowmelt ............... NO
    Groundwater ............ NO
    Flow Routing ........... YES
    Ponding Allowed ........ NO
    Water Quality .......... NO
  Infiltration Method ...... HORTON
  Flow Routing Method ...... DYNWAVE
  Surcharge Method ......... EXTRAN
  Starting Date ............ 08/28/2015 08:00:00
  Ending Date .............. 08/28/2015 15:50:00
  Antecedent Dry Days ...... 8.0
  Report Time Step ......... 00:01:00
  Wet Time Step ............ 00:01:00
  Dry Time Step ............ 00:01:00
  Routing Time Step ........ 5.00 sec
  Variable Time Step ....... YES
  Maximum Trials ........... 8
  Number of Threads ........ 4
  Head Tolerance ........... 0.001500 m
  
  
  **************************        Volume         Depth
  Runoff Quantity Continuity     hectare-m            mm
  **************************     ---------       -------
  Total Precipitation ......         4.854        10.627
  Evaporation Loss .........         0.000         0.000
  Infiltration Loss ........         1.246         2.727
  Surface Runoff ...........         2.607         5.707
  Final Storage ............         1.002         2.194
  Continuity Error (%) .....        -0.015
  
  
  **************************        Volume        Volume
  Flow Routing Continuity        hectare-m      10^6 ltr
  **************************     ---------     ---------
  Dry Weather Inflow .......         0.616         6.165
  Wet Weather Inflow .......         2.606        26.059
  Groundwater Inflow .......         0.000         0.000
  RDII Inflow ..............         0.000         0.000
  External Inflow ..........         0.102         1.024
  External Outflow .........         1.998        19.985
  Flooding Loss ............         0.853         8.525
  Evaporation Loss .........         0.000         0.000
  Exfiltration Loss ........         0.000         0.000
  Initial Stored Volume ....         0.076         0.761
  Final Stored Volume ......         0.646         6.462
  Continuity Error (%) .....        -2.838
  
  
  *************************
  Highest Continuity Errors
  *************************
  Node HS02004842 (17.68%)
  Node JK-storage (-12.49%)
  Node YS02001884 (11.37%)
  Node YS02001774 (6.29%)
  Node YSB1171 (3.62%)
  
  
  ***************************
  Time-Step Critical Elements
  ***************************
  Link 3 (50.58%)
  Link WS02006252WS02006251 (44.32%)
  
  
  ********************************
  Highest Flow Instability Indexes
  ********************************
  Link WS02006113WS02006111 (36)
  Link YS02163301YS02001633 (32)
  Link YS02001629YS02163301 (32)
  Link YS02163601YS02164001 (32)
  Link YS02001619YS02001622 (31)
  
  
  *************************
  Routing Time Step Summary
  *************************
  Minimum Time Step           :     0.50 sec
  Average Time Step           :     0.78 sec
  Maximum Time Step           :     5.00 sec
  Percent in Steady State     :    -0.00
  Average Iterations per Step :     4.34
  Percent Not Converging      :    19.92
  
  
  ***************************
  Subcatchment Runoff Summary
  ***************************
  
  ------------------------------------------------------------------------------------------------------------------------------
                            Total      Total      Total      Total     Imperv       Perv      Total       Total     Peak  Runoff
                           Precip      Runon       Evap      Infil     Runoff     Runoff     Runoff      Runoff   Runoff   Coeff
  Subcatchment                 mm         mm         mm         mm         mm         mm         mm    10^6 ltr      LPS
  ------------------------------------------------------------------------------------------------------------------------------
  sub0                      10.63       0.00       0.00       0.74       8.62       0.00       8.62        0.01     1.33   0.811
  sub1                      10.63       0.00       0.00       1.17       8.20       0.00       8.20        0.05     9.09   0.772
  sub2                      10.63       0.00       0.00       3.93       5.79       0.00       5.79        0.05     8.42   0.544
  sub3                      10.63       0.00       0.00       3.93       5.75       0.00       5.75        0.13    19.27   0.541
  sub4                      10.63       0.00       0.00       1.17       8.05       0.00       8.05        0.17    23.93   0.757
  sub5                      10.63       0.00       0.00       0.74       8.57       0.00       8.57        0.10    16.17   0.806
  sub7                      10.63       0.00       0.00       0.96       8.41       0.00       8.41        0.03     5.13   0.792
  sub8                      10.63       0.00       0.00       0.96       8.41       0.00       8.41        0.05     9.46   0.791
  sub9                      10.63       0.00       0.00       0.96       8.40       0.00       8.40        0.04     7.08   0.791
  sub10                     10.63       0.00       0.00       0.85       8.48       0.00       8.48        0.09    15.87   0.798
  sub11                     10.63       0.00       0.00       0.85       8.50       0.00       8.50        0.10    17.56   0.800
  sub12                     10.63       0.00       0.00       1.38       8.06       0.00       8.06        0.07    13.15   0.758
  sub14                     10.63       0.00       0.00       0.96       8.40       0.00       8.40        0.08    13.93   0.791
  sub15                     10.63       0.00       0.00       3.19       6.46       0.00       6.46        0.11    19.14   0.608
  sub16                     10.63       0.00       0.00       3.51       6.20       0.00       6.20        0.06    12.01   0.584
  sub17                     10.63       0.00       0.00       3.40       6.29       0.00       6.29        0.05     9.91   0.592
  sub22                     10.63       0.00       0.00       4.57       5.27       0.00       5.27        0.33    59.53   0.496
  sub23                     10.63       0.00       0.00       3.93       5.82       0.00       5.82        0.28    50.05   0.548
  sub60                     10.63       0.00       0.00       1.28       6.54       0.00       6.54        1.98   196.13   0.615
  sub61                     10.63       0.00       0.00       1.81       6.69       0.00       6.69        2.06   224.83   0.630
  sub62                     10.63       0.00       0.00       0.85       7.26       0.00       7.26        2.23   236.97   0.684
  sub63                     10.63       0.00       0.00       3.08       5.87       0.00       5.87        1.78   199.96   0.553
  sub64                     10.63       0.00       0.00       1.59       6.27       0.00       6.27        1.91   187.22   0.590
  sub65                     10.63       0.00       0.00       1.38       6.37       0.00       6.37        1.96   190.91   0.599
  sub66                     10.63       0.00       0.00       3.08       5.39       0.00       5.39        1.65   167.73   0.507
  sub67                     10.63       0.00       0.00       0.85       7.71       0.00       7.71        2.38   272.25   0.726
  sub68                     10.63       0.00       0.00       1.49       7.05       0.00       7.05        2.17   241.26   0.664
  sub69                     10.63       0.00       0.00       1.59       7.35       0.00       7.35        1.72   204.41   0.692
  sub70                     10.63       7.50       0.00       6.16       9.71       0.01       9.71        2.22   229.02   0.536
  sub71                     10.63       0.00       0.00       0.85       7.06       0.00       7.06        1.67   170.86   0.664
  sub72                     10.63       0.00       0.00       0.74       5.52       0.00       5.52        1.12    91.59   0.519
  sub73                     10.63       9.45       0.00       6.83      10.48       0.00      10.49        2.46   215.21   0.522
  sub74                     10.63       0.00       0.00       7.97       2.19       0.00       2.19        0.88   108.49   0.206
  
  
  ******************
  Node Depth Summary
  ******************
  
  ---------------------------------------------------------------------------------
                                 Average  Maximum  Maximum  Time of Max    Reported
                                   Depth    Depth      HGL   Occurrence   Max Depth
  Node                 Type       Meters   Meters   Meters  days hr:min      Meters
  ---------------------------------------------------------------------------------
  WS02001211           JUNCTION     0.65     0.72     5.56     0  02:20        0.72
  WS02001212           JUNCTION     0.38     0.45     5.51     0  02:20        0.45
  WS02001213           JUNCTION     0.62     0.71     5.47     0  02:21        0.71
  WS02003069           JUNCTION     0.45     0.56     5.14     0  02:22        0.56
  WS02003072           JUNCTION     0.51     0.62     4.99     0  02:23        0.62
  WS02003073           JUNCTION     0.31     0.38     4.44     0  02:23        0.38
  WS02003060           JUNCTION     0.40     0.49     5.42     0  02:22        0.49
  WS02003066           JUNCTION     0.24     0.30     5.86     0  02:21        0.30
  WS02003059           JUNCTION     0.68     0.77     5.46     0  02:21        0.77
  WS02003067           JUNCTION     0.59     0.71     6.03     0  02:21        0.71
  WS02004401           JUNCTION     0.70     0.87     6.87     0  02:19        0.87
  WS02004402           JUNCTION     0.73     0.89     6.85     0  02:19        0.89
  WS02004403           JUNCTION     0.75     0.91     6.84     0  02:18        0.91
  WS02004404           JUNCTION     0.82     0.98     6.83     0  02:19        0.98
  WS02004406           JUNCTION     0.83     0.97     6.80     0  02:19        0.97
  WS02004409           JUNCTION     0.52     0.68     6.45     0  02:20        0.68
  WS02004410           JUNCTION     0.53     0.70     6.42     0  02:20        0.70
  WS02004411           JUNCTION     0.55     0.70     6.38     0  02:20        0.70
  WS02004412           JUNCTION     0.56     0.71     6.35     0  02:21        0.71
  WS02004413           JUNCTION     0.72     0.87     6.34     0  02:21        0.87
  WS02004405           JUNCTION     0.82     0.97     6.82     0  02:19        0.97
  WS02006109           JUNCTION     0.78     0.99     7.60     0  02:17        0.99
  WS02006110           JUNCTION     0.77     0.93     7.52     0  02:18        0.93
  WS02006111           JUNCTION     0.23     0.29     7.00     0  02:16        0.29
  WS02006112           JUNCTION     0.87     1.13     7.02     0  02:18        1.11
  WS02006113           JUNCTION     0.36     0.46     7.35     0  02:16        0.46
  WS02006115           JUNCTION     0.59     0.77     6.91     0  02:18        0.77
  WS02006116           JUNCTION     0.67     0.85     6.89     0  02:18        0.85
  WS02006230           JUNCTION     0.76     1.03     7.77     0  02:17        1.03
  WS02006231           JUNCTION     0.50     0.69     7.81     0  02:17        0.69
  WS02006232           JUNCTION     0.64     0.81     7.85     0  02:17        0.81
  WS02006234           JUNCTION     0.55     0.74     7.90     0  02:18        0.74
  WS02006235           JUNCTION     0.59     0.77     7.93     0  02:18        0.77
  WS02006238           JUNCTION     0.61     0.79     7.94     0  02:18        0.79
  WS02006240           JUNCTION     0.50     0.69     7.99     0  02:19        0.69
  WS02006242           JUNCTION     0.55     0.75     8.02     0  02:19        0.75
  WS02006243           JUNCTION     0.42     0.62     8.04     0  02:19        0.62
  WS02006245           JUNCTION     0.40     0.58     8.07     0  02:19        0.58
  WS02006247           JUNCTION     0.42     0.58     8.08     0  02:19        0.58
  WS02006248           JUNCTION     0.36     0.51     8.10     0  02:19        0.51
  WS02006249           JUNCTION     0.39     0.53     8.13     0  02:19        0.53
  WS02006239           JUNCTION     0.56     0.75     7.96     0  02:19        0.75
  WS02006251           JUNCTION     0.38     0.50     8.17     0  02:18        0.50
  WS02006252           JUNCTION     0.32     0.35     8.59     0  05:00        0.35
  WS02006253           JUNCTION     0.41     0.53     8.17     0  02:18        0.53
  WS02006256           JUNCTION     1.09     2.35     9.28     0  00:00        1.21
  WS02004138           JUNCTION     0.15     0.17     7.42     0  00:00        0.17
  WS02004407           JUNCTION     0.23     0.30     6.61     0  02:19        0.30
  WS02006228           JUNCTION     0.78     1.03     7.68     0  02:17        1.03
  WS02006229           JUNCTION     0.76     1.03     7.72     0  02:17        1.03
  WS02006280           JUNCTION     0.07     0.16     8.43     0  01:50        0.16
  WS02006284           JUNCTION     0.37     0.50     8.90     0  01:50        0.50
  WS02006287           JUNCTION     0.10     0.23     9.19     0  01:50        0.23
  WSF200               JUNCTION     0.23     0.32     5.55     0  02:27        0.32
  HS02004901           JUNCTION     0.13     0.24    10.06     0  01:47        0.24
  HS02004881           JUNCTION     0.01     0.03     9.06     0  01:50        0.03
  HS02004876           JUNCTION     0.05     0.11     9.14     0  01:47        0.11
  HS02004870           JUNCTION     0.02     0.05     9.33     0  01:50        0.05
  HS02004862           JUNCTION     0.02     0.05     9.44     0  01:51        0.05
  HS02004856           JUNCTION     0.08     0.11     9.54     0  01:51        0.11
  HS02004852           JUNCTION     0.01     0.03     9.54     0  01:52        0.03
  HS02004848           JUNCTION     0.01     0.03     9.63     0  01:51        0.03
  HS02004842           JUNCTION     0.33     0.36     9.63     0  01:51        0.36
  HS02004837           JUNCTION     0.03     0.05     9.63     0  01:51        0.05
  HS02004830           JUNCTION     0.04     0.07     9.54     0  01:51        0.07
  HS02004824           JUNCTION     0.02     0.05     9.45     0  02:16        0.05
  HS02004817           JUNCTION     0.44     0.54     9.39     0  01:51        0.54
  HS02004807           JUNCTION     0.13     0.22     9.39     0  01:51        0.22
  HS02004802           JUNCTION     0.16     0.25     9.38     0  01:51        0.25
  HS02004799           JUNCTION     0.12     0.28     9.49     0  01:48        0.28
  HS02004792           JUNCTION     0.03     0.11     9.63     0  01:47        0.11
  HS02004788           JUNCTION     0.03     0.08     9.98     0  01:48        0.08
  HS02004785           JUNCTION     0.05     0.14    10.04     0  01:48        0.14
  HS02004777           JUNCTION     0.15     0.26    10.06     0  01:47        0.26
  HS02004770           JUNCTION     0.12     0.23    10.06     0  01:47        0.23
  HS02004480           JUNCTION     0.08     0.21     9.46     0  01:48        0.21
  HS02004479           JUNCTION     0.12     0.25     9.46     0  01:48        0.25
  HS02004478           JUNCTION     0.06     0.14     9.37     0  01:49        0.14
  YS02001745           JUNCTION     0.69     0.87     8.38     0  03:11        0.86
  YS02001748           JUNCTION     1.09     2.09     9.17     0  02:35        1.31
  YS02001751           JUNCTION     1.27     2.01     8.89     0  02:16        1.56
  YS02001754           JUNCTION     1.53     1.99     8.60     0  02:16        1.80
  YS02001762           JUNCTION     1.73     2.03     8.43     0  03:15        2.02
  YS02001765           JUNCTION     1.68     1.97     8.42     0  03:15        1.96
  YS02001767           JUNCTION     1.65     1.93     8.42     0  03:03        1.92
  YS02001770           JUNCTION     1.64     1.92     8.42     0  02:16        1.90
  YS02001774           JUNCTION     1.71     2.00     8.42     0  02:16        1.96
  YS02001779           JUNCTION     1.46     1.68     8.37     0  02:16        1.68
  YS02001882           JUNCTION     0.42     0.85     7.56     0  03:02        0.84
  YS02001884           JUNCTION     0.51     0.94     7.56     0  03:02        0.94
  YS02001759           JUNCTION     1.77     2.06     8.43     0  03:05        2.06
  YS02001887           JUNCTION     0.59     1.02     7.56     0  03:03        1.02
  YS02001890           JUNCTION     0.62     1.05     7.56     0  03:02        1.05
  YS02001898           JUNCTION     0.39     0.81     7.55     0  03:03        0.81
  YS02001901           JUNCTION     0.51     0.94     7.55     0  03:02        0.94
  YS02001904           JUNCTION     0.49     0.91     7.54     0  03:03        0.91
  YS02001907           JUNCTION     0.82     1.26     7.54     0  03:02        1.25
  YS02001910           JUNCTION     0.61     1.04     7.55     0  03:03        1.04
  YS02001915           JUNCTION     0.40     0.83     7.55     0  03:03        0.83
  YS02001918           JUNCTION     0.16     0.48     7.55     0  03:02        0.48
  YS02001619           JUNCTION     1.24     1.61     8.54     0  02:28        1.46
  YS02001629           JUNCTION     1.60     1.85     8.40     0  02:32        1.84
  YS02001641           JUNCTION     1.70     1.98     8.41     0  02:38        1.93
  YS02001644           JUNCTION     1.70     1.92     8.35     0  02:38        1.92
  YS02001652           JUNCTION     1.54     2.16     8.76     0  02:20        2.03
  YS02001655           JUNCTION     1.30     2.20     9.05     0  02:18        2.06
  YS02001920           JUNCTION     0.25     0.55     7.56     0  03:03        0.54
  YS02001923           JUNCTION     0.10     0.29     7.55     0  03:03        0.29
  YS02001926           JUNCTION     0.20     0.26     7.71     0  03:01        0.26
  YS02001929           JUNCTION     0.10     0.14     7.84     0  03:01        0.14
  YS02001658           JUNCTION     1.03     2.30     9.44     0  02:29        2.06
  YS02001661           JUNCTION     0.80     2.32     9.72     0  02:55        2.08
  YS02001664           JUNCTION     0.35     0.57     8.50     0  02:50        0.56
  YS02001622           JUNCTION     1.26     1.62     8.52     0  02:31        1.49
  YS02001633           JUNCTION     1.69     2.00     8.45     0  02:38        1.94
  YS02001649           JUNCTION     1.74     2.05     8.44     0  02:33        2.05
  YS02001757           JUNCTION     1.86     2.17     8.43     0  03:13        2.16
  YS02001895           JUNCTION     0.38     0.81     7.55     0  03:03        0.81
  YS02001625           JUNCTION     1.55     1.78     8.38     0  02:31        1.78
  YS02163301           JUNCTION     1.63     1.91     8.43     0  02:38        1.87
  YS02163601           JUNCTION     1.74     2.06     8.45     0  02:38        1.98
  YS02164001           JUNCTION     1.68     1.98     8.44     0  02:38        1.91
  YS02001647           JUNCTION     1.53     1.80     8.41     0  02:52        1.79
  YSB1154              JUNCTION     0.26     0.40     9.46     0  01:48        0.40
  YSB6556              JUNCTION     0.15     0.29     9.46     0  01:48        0.29
  YSB1174              JUNCTION     0.21     0.35     9.46     0  01:48        0.35
  YSB1171              JUNCTION     0.41     0.55     9.46     0  01:48        0.55
  YS02006553           JUNCTION     0.82     1.25     7.54     0  03:02        1.25
  YS02006561           JUNCTION     0.23     0.56     7.22     0  03:03        0.56
  YS02006556           JUNCTION     0.79     1.21     7.52     0  03:02        1.21
  YS02006558           JUNCTION     0.83     1.24     7.51     0  03:02        1.24
  YS02001783           JUNCTION     0.44     1.44     7.58     0  02:23        1.07
  YS02001784           JUNCTION     0.47     1.58     7.65     0  02:23        1.07
  YS02001786           JUNCTION     0.42     1.86     7.89     0  02:23        0.98
  YS02001788           JUNCTION     0.36     1.89     7.87     0  02:23        0.93
  YS02001790           JUNCTION     0.46     1.96     7.60     0  02:21        1.15
  YS02001791           JUNCTION     0.44     1.58     7.05     0  02:21        1.22
  YS02001793           JUNCTION     0.62     2.74     7.57     0  02:19        1.79
  WS02004139           JUNCTION     0.60     0.66     5.57     0  02:20        0.66
  WSC                  OUTFALL      0.31     0.38     1.05     0  02:24        0.38
  3                    OUTFALL      0.11     0.23     6.23     0  00:00        0.20
  4                    OUTFALL      0.00     0.03     7.03     0  02:19        0.03
  5                    OUTFALL      0.00     0.00     5.00     0  00:00        0.00
  JK-storage           STORAGE      2.38     5.80     6.60     0  02:22        5.80
  CC-storage           STORAGE      1.09     1.37     8.37     0  03:16        1.37
  XR-storage           STORAGE      7.25     7.72     5.72     0  02:20        7.72
  
  
  *******************
  Node Inflow Summary
  *******************
  
  -------------------------------------------------------------------------------------------------
                                  Maximum  Maximum                  Lateral       Total        Flow
                                  Lateral    Total  Time of Max      Inflow      Inflow     Balance
                                   Inflow   Inflow   Occurrence      Volume      Volume       Error
  Node                 Type           LPS      LPS  days hr:min    10^6 ltr    10^6 ltr     Percent
  -------------------------------------------------------------------------------------------------
  WS02001211           JUNCTION      7.35   293.25     0  05:05       0.207        6.76       0.437
  WS02001212           JUNCTION      0.00   293.96     0  05:05           0        6.73       0.243
  WS02001213           JUNCTION      0.00   294.65     0  05:04           0        6.72       0.321
  WS02003069           JUNCTION      0.32   866.45     0  02:22     0.00902        15.4       0.179
  WS02003072           JUNCTION      0.00   866.35     0  02:22           0        15.4       0.224
  WS02003073           JUNCTION      1.82   868.11     0  02:23      0.0514        15.4       0.248
  WS02003060           JUNCTION     16.53   866.38     0  02:22       0.466        15.5       0.171
  WS02003066           JUNCTION      0.00   559.27     0  02:21           0        8.34       0.055
  WS02003059           JUNCTION      0.00   296.00     0  05:03           0         6.7       0.507
  WS02003067           JUNCTION      0.00   559.23     0  02:21           0        8.35       0.114
  WS02004401           JUNCTION      0.00   561.13     0  02:18           0        8.59       0.257
  WS02004402           JUNCTION      0.00   560.86     0  02:17           0        8.56       0.242
  WS02004403           JUNCTION      0.00   560.31     0  02:17           0        8.54       0.219
  WS02004404           JUNCTION      0.16   560.47     0  02:19     0.00457        8.53       0.164
  WS02004406           JUNCTION      0.00   560.49     0  02:18           0         8.5       0.399
  WS02004409           JUNCTION      0.00   559.88     0  02:20           0        8.45       0.200
  WS02004410           JUNCTION      0.00   559.69     0  02:20           0        8.44       0.226
  WS02004411           JUNCTION      0.00   559.65     0  02:20           0        8.42       0.231
  WS02004412           JUNCTION      0.00   559.35     0  02:20           0         8.4       0.248
  WS02004413           JUNCTION      0.00   559.54     0  02:21           0        8.38       0.369
  WS02004405           JUNCTION      0.04   560.51     0  02:19     0.00107        8.52       0.247
  WS02006109           JUNCTION      1.23   551.87     0  02:17      0.0347        8.66       0.265
  WS02006110           JUNCTION      0.00   551.85     0  02:17           0        8.64       0.234
  WS02006111           JUNCTION      0.00   575.09     0  02:19           0        8.61       0.053
  WS02006112           JUNCTION      9.91   566.27     0  02:16       0.054        8.66       0.332
  WS02006113           JUNCTION      0.00   552.45     0  02:19           0        8.62       0.117
  WS02006115           JUNCTION      0.00   578.89     0  02:18           0        8.63       0.246
  WS02006116           JUNCTION      0.00   561.76     0  02:18           0        8.61       0.236
  WS02006230           JUNCTION     10.28   342.68     0  03:12        0.29        7.02       0.213
  WS02006231           JUNCTION      0.00   330.68     0  03:12           0        6.74       0.141
  WS02006232           JUNCTION      0.00   330.60     0  03:11           0        6.76       0.246
  WS02006234           JUNCTION      0.00   329.60     0  03:10           0        6.76       0.121
  WS02006235           JUNCTION      0.00   328.98     0  03:10           0         6.8       0.165
  WS02006238           JUNCTION      0.00   243.56     0  02:50           0        4.45       0.182
  WS02006240           JUNCTION      0.00   242.46     0  02:29           0        4.44       0.277
  WS02006242           JUNCTION      0.00   242.42     0  02:29           0        4.45       0.332
  WS02006243           JUNCTION      0.00   241.66     0  02:29           0        4.45       0.154
  WS02006245           JUNCTION      0.00   241.20     0  02:30           0        4.46       0.190
  WS02006247           JUNCTION      0.00   240.68     0  02:30           0        4.47       0.155
  WS02006248           JUNCTION      0.00   242.85     0  02:03           0        4.47       0.093
  WS02006249           JUNCTION      0.00   247.44     0  02:17           0        4.49       0.232
  WS02006239           JUNCTION      0.00   243.00     0  02:50           0        4.44       0.266
  WS02006251           JUNCTION      0.08   247.67     0  02:16     0.00217         4.5       0.194
  WS02006252           JUNCTION      0.00   200.00     0  02:00           0        4.19       0.010
  WS02006253           JUNCTION      1.33    51.15     0  01:49     0.00698       0.312       1.208
  WS02006256           JUNCTION      0.00   600.00     0  00:00           0        6.97       0.035
  WS02004138           JUNCTION      0.00   285.00     0  00:00           0        6.58       0.066
  WS02004407           JUNCTION      0.00   560.16     0  02:19           0        8.46       0.090
  WS02006228           JUNCTION      0.00   550.64     0  02:17           0        8.64       0.188
  WS02006229           JUNCTION      0.00   550.51     0  02:17           0        8.65       0.141
  WS02006280           JUNCTION      0.00   250.77     0  01:50           0        1.65       0.004
  WS02006284           JUNCTION      0.10   250.79     0  01:50      0.0027        1.65       0.062
  WS02006287           JUNCTION      0.00   250.70     0  01:50           0        1.65       0.044
  WSF200               JUNCTION      0.00   559.31     0  02:21           0        8.33       0.055
  HS02004901           JUNCTION     12.01    12.01     0  01:45      0.0649      0.0651       2.778
  HS02004881           JUNCTION      5.13    49.92     0  01:49      0.0283       0.303       0.115
  HS02004876           JUNCTION      9.09    44.88     0  01:50      0.0545       0.275       0.197
  HS02004870           JUNCTION      9.46    35.90     0  01:50      0.0537       0.221       0.049
  HS02004862           JUNCTION      8.62    26.77     0  01:51      0.0595       0.167       0.103
  HS02004856           JUNCTION      7.08    18.19     0  01:50      0.0404       0.109       1.339
  HS02004852           JUNCTION      0.00    11.37     0  01:51           0      0.0688       0.079
  HS02004848           JUNCTION     19.27    19.27     0  02:15       0.129       0.129       0.035
  HS02004842           JUNCTION      0.00     7.96     0  02:16           0      0.0736      21.473
  HS02004837           JUNCTION     22.22    28.76     0  01:50       0.273       0.333       0.245
  HS02004830           JUNCTION      0.15    28.90     0  01:51     0.00423       0.323       0.383
  HS02004824           JUNCTION     23.98    52.78     0  02:16       0.169       0.492       0.110
  HS02004817           JUNCTION      0.60    53.38     0  02:16      0.0169       0.508       3.394
  HS02004807           JUNCTION     17.56    68.44     0  02:16      0.0987        0.59       0.739
  HS02004802           JUNCTION      0.00    68.45     0  02:16           0       0.587       0.681
  HS02004799           JUNCTION     13.93   155.61     0  01:47      0.0799       0.915       0.288
  HS02004792           JUNCTION     59.81   141.74     0  01:47       0.341       0.835       0.049
  HS02004788           JUNCTION     20.81    82.39     0  01:48       0.158       0.496       0.078
  HS02004785           JUNCTION      0.15    61.69     0  01:47     0.00423       0.339       0.145
  HS02004777           JUNCTION      0.03    61.69     0  01:46    0.000846        0.34       1.552
  HS02004770           JUNCTION     50.05    61.90     0  01:46       0.278       0.341       0.915
  HS02004480           JUNCTION      0.00   184.53     0  01:48           0        1.08       0.105
  HS02004479           JUNCTION      0.00    29.01     0  01:50           0       0.176       0.418
  HS02004478           JUNCTION      0.00   250.67     0  01:49           0        1.65       0.021
  YS02001745           JUNCTION    196.14   360.13     0  02:35        1.98           2       0.551
  YS02001748           JUNCTION      0.04   515.38     0  02:35     0.00127        1.99       1.134
  YS02001751           JUNCTION      0.01   467.05     0  02:15     0.00031        1.95       1.216
  YS02001754           JUNCTION      0.26   213.11     0  02:20     0.00733        1.93       1.280
  YS02001762           JUNCTION      0.00   234.16     0  02:53           0        1.82       1.171
  YS02001765           JUNCTION      0.00   234.22     0  02:53           0        1.82       1.343
  YS02001767           JUNCTION      0.54   234.37     0  02:53      0.0151        1.84       1.969
  YS02001770           JUNCTION    237.12   237.12     0  03:00        2.24        2.24       1.422
  YS02001774           JUNCTION      0.00   167.28     0  03:19           0         0.4       6.711
  YS02001779           JUNCTION      0.01   167.66     0  03:19    0.000141       0.368       4.338
  YS02001882           JUNCTION      0.00    13.16     0  02:17           0      0.0151      15.926
  YS02001884           JUNCTION      0.00    24.27     0  02:18           0      0.0501      12.831
  YS02001759           JUNCTION    224.87   455.65     0  02:53        2.06        3.84       0.591
  YS02001887           JUNCTION    272.70   273.59     0  02:26        2.39        2.42       0.333
  YS02001890           JUNCTION      0.00   268.12     0  03:00           0        2.38       0.370
  YS02001898           JUNCTION      0.00   269.70     0  02:26           0        2.36       0.116
  YS02001901           JUNCTION      0.00   273.93     0  02:19           0        2.36       0.277
  YS02001904           JUNCTION      0.00   267.34     0  02:20           0        2.36       0.252
  YS02001907           JUNCTION      0.00   526.49     0  03:06           0        5.21       0.452
  YS02001910           JUNCTION      0.00   267.43     0  03:09           0        2.86       0.394
  YS02001915           JUNCTION    170.88   264.46     0  03:04        1.67        2.86       0.196
  YS02001918           JUNCTION      0.00   107.21     0  03:16           0         1.2       0.142
  YS02001619           JUNCTION    167.73   167.73     0  03:01        1.65        1.65       0.716
  YS02001629           JUNCTION      0.00   222.40     0  02:18           0        1.57       1.786
  YS02001641           JUNCTION      0.00   352.55     0  03:00           0        3.43       0.613
  YS02001644           JUNCTION    187.26   826.36     0  03:15        1.91        6.82       0.382
  YS02001652           JUNCTION      0.00   263.19     0  02:27           0        1.73       1.330
  YS02001655           JUNCTION      0.15   411.09     0  02:21     0.00434        1.75       1.299
  YS02001920           JUNCTION      2.87   104.42     0  03:04      0.0809         1.2       0.227
  YS02001923           JUNCTION      0.04    91.49     0  03:01     0.00106        1.12       0.042
  YS02001926           JUNCTION      0.05    91.60     0  03:01     0.00147        1.12       0.282
  YS02001929           JUNCTION     91.59    91.59     0  03:01        1.12        1.12       0.041
  YS02001658           JUNCTION      0.00   608.88     0  02:29           0        1.82       1.167
  YS02001661           JUNCTION      0.00   597.81     0  02:49           0        2.58       0.091
  YS02001664           JUNCTION    199.96   381.11     0  02:47        1.78        2.54       0.245
  YS02001622           JUNCTION      0.00   172.67     0  02:19           0        1.64       1.948
  YS02001633           JUNCTION    191.11   352.40     0  02:59        1.96        3.49       0.926
  YS02001649           JUNCTION      0.00   714.70     0  02:46           0        4.66       0.793
  YS02001757           JUNCTION      0.00  1321.34     0  02:46           0         8.8       1.055
  YS02001895           JUNCTION      0.00   270.48     0  02:26           0        2.37       0.201
  YS02001625           JUNCTION      0.00   222.29     0  02:18           0        1.61       2.454
  YS02163301           JUNCTION      0.00   194.78     0  02:27           0        1.56       1.565
  YS02163601           JUNCTION      0.11   352.33     0  02:59      0.0031        3.45       0.873
  YS02164001           JUNCTION      0.00   352.38     0  02:59           0        3.43       0.584
  YS02001647           JUNCTION      0.00   517.07     0  02:46           0        3.68       0.760
  YSB1154              JUNCTION     16.17    16.17     0  01:48       0.097      0.0978       1.500
  YSB6556              JUNCTION      0.00    16.24     0  01:49           0      0.0986       1.284
  YSB1174              JUNCTION     13.15    13.15     0  01:45      0.0704      0.0709       1.845
  YSB1171              JUNCTION      0.00    29.31     0  01:48           0       0.175       3.755
  YS02006553           JUNCTION      0.00   526.51     0  03:06           0         5.2       0.285
  YS02006561           JUNCTION      0.00   753.47     0  03:02           0        7.33       0.009
  YS02006556           JUNCTION      0.00   526.52     0  03:06           0         5.2       0.212
  YS02006558           JUNCTION    242.14   753.47     0  03:02        2.19        7.37       0.068
  YS02001783           JUNCTION      0.00   753.47     0  03:04           0        7.33       0.029
  YS02001784           JUNCTION      1.06   754.71     0  03:03      0.0299        7.36       0.046
  YS02001786           JUNCTION      0.06   754.59     0  03:03     0.00159        7.36       0.042
  YS02001788           JUNCTION      0.07   754.68     0  03:03       0.002        7.36       0.026
  YS02001790           JUNCTION      0.15   754.83     0  03:03     0.00437        7.36       0.030
  YS02001791           JUNCTION      0.00   754.95     0  03:03           0        7.36       0.015
  YS02001793           JUNCTION      0.00   755.10     0  03:04           0        7.37       0.001
  WS02004139           JUNCTION      0.32   290.33     0  00:00     0.00905        6.59       0.502
  WSC                  OUTFALL       0.00   867.99     0  02:24           0        15.4       0.000
  3                    OUTFALL       0.00   597.65     0  00:00           0        4.59       0.000
  4                    OUTFALL       0.00     7.34     0  02:19           0     0.00774       0.000
  5                    OUTFALL       0.00     0.00     0  00:00           0           0       0.000 ltr
  JK-storage           STORAGE       0.00  1029.67     0  04:47           0        7.52     -11.104
  CC-storage           STORAGE       0.00  1321.23     0  02:46           0        7.89       0.812
  XR-storage           STORAGE     519.52   519.52     0  03:01        8.98        9.58      -0.000
  
  
  **********************
  Node Surcharge Summary
  **********************
  
  Surcharging occurs when water rises above the top of the highest conduit.
  ---------------------------------------------------------------------
                                               Max. Height   Min. Depth
                                   Hours       Above Crown    Below Rim
  Node                 Type      Surcharged         Meters       Meters
  ---------------------------------------------------------------------
  WS02006109           JUNCTION        1.73          0.166        1.654
  WS02006110           JUNCTION        0.72          0.023        1.827
  WS02006112           JUNCTION        1.16          0.134        1.546
  WS02006232           JUNCTION        1.29          0.112        1.368
  WS02006234           JUNCTION        0.60          0.021        1.219
  WS02006235           JUNCTION        1.02          0.056        1.234
  WS02006238           JUNCTION        1.09          0.072        1.358
  WS02006242           JUNCTION        0.40          0.017        0.803
  WS02006239           JUNCTION        0.39          0.014        1.276
  WS02006256           JUNCTION        0.01          1.050        0.000
  WS02006228           JUNCTION        1.71          0.198        2.002
  YS02001748           JUNCTION        5.13          1.013        0.177
  YS02001751           JUNCTION        5.40          1.007        0.193
  YS02001754           JUNCTION        5.70          0.940        0.210
  YS02001762           JUNCTION        5.94          1.026        0.124
  YS02001765           JUNCTION        5.92          0.973        0.127
  YS02001767           JUNCTION        5.90          0.928        0.102
  YS02001770           JUNCTION        5.88          0.894        0.026
  YS02001774           JUNCTION        5.93          0.998        0.052
  YS02001779           JUNCTION        5.68          0.680        0.000
  YS02001759           JUNCTION        5.97          1.065        0.145
  YS02001890           JUNCTION        0.02          0.003        0.757
  YS02001907           JUNCTION        1.23          0.245        0.705
  YS02001910           JUNCTION        0.21          0.040        1.060
  YS02001619           JUNCTION        5.38          0.610        0.000
  YS02001629           JUNCTION        5.42          0.470        0.000
  YS02001641           JUNCTION        5.93          0.977        0.123
  YS02001644           JUNCTION        5.93          0.920        0.000
  YS02001652           JUNCTION        5.75          1.130        0.000
  YS02001655           JUNCTION        5.44          1.200        0.000
  YS02001658           JUNCTION        5.16          1.300        0.000
  YS02001661           JUNCTION        0.19          1.245        0.145
  YS02001622           JUNCTION        5.47          0.620        0.000
  YS02001633           JUNCTION        5.91          0.976        0.084
  YS02001649           JUNCTION        5.94          1.050        0.000
  YS02001757           JUNCTION        6.03          1.168        0.042
  YS02001625           JUNCTION        5.83          0.780        0.000
  YS02163301           JUNCTION        5.89          0.913        0.117
  YS02163601           JUNCTION        5.95          1.055        0.025
  YS02164001           JUNCTION        5.92          0.984        0.116
  YS02001647           JUNCTION        5.79          0.804        0.096
  YS02006553           JUNCTION        1.31          0.252        0.938
  YS02006556           JUNCTION        0.67          0.168        1.182
  YS02006558           JUNCTION        0.59          0.145        1.255
  YS02001783           JUNCTION        1.02          0.640        0.960
  YS02001784           JUNCTION        1.09          0.779        0.711
  YS02001786           JUNCTION        1.02          1.061        0.369
  YS02001788           JUNCTION        1.01          1.095        0.385
  YS02001790           JUNCTION        1.62          1.157        0.000
  YS02001791           JUNCTION        1.65          0.782        1.138
  YS02001793           JUNCTION        2.10          1.742        0.858
  
  
  *********************
  Node Flooding Summary
  *********************
  
  Flooding refers to all water that overflows a node, whether it ponds or not.
  --------------------------------------------------------------------------
                                                             Total   Maximum
                                 Maximum   Time of Max       Flood    Ponded
                        Hours       Rate    Occurrence      Volume     Depth
  Node                 Flooded       LPS   days hr:min    10^6 ltr    Meters
  --------------------------------------------------------------------------
  WS02006256              0.01    406.11      0  00:00       0.001     0.000
  YS02001779              2.09    167.43      0  03:19       0.346     0.000
  YS02001619              0.01     35.01      0  02:31       0.000     0.000
  YS02001629              0.01     33.66      0  02:34       0.000     0.000
  YS02001644              4.33    826.26      0  03:15       4.618     0.000
  YS02001652              0.01     65.28      0  02:22       0.000     0.000
  YS02001655              0.01    342.37      0  02:21       0.002     0.000
  YS02001658              0.01    349.64      0  02:29       0.001     0.000
  YS02001622              0.01     28.97      0  02:33       0.000     0.000
  YS02001649              0.05     39.01      0  02:53       0.003     0.000
  YS02001625              0.31     27.87      0  02:36       0.004     0.000
  YS02001790              0.01    108.82      0  02:21       0.000     0.000
  JK-storage              1.31    454.97      0  03:03       1.481     0.000
  XR-storage              4.72    296.04      0  02:40       2.070     0.000
  
  
  **********************
  Storage Volume Summary
  **********************
  
  --------------------------------------------------------------------------------------------------
                         Average     Avg  Evap Exfil       Maximum     Max    Time of Max    Maximum
                          Volume    Pcnt  Pcnt  Pcnt        Volume    Pcnt     Occurrence    Outflow
  Storage Unit           1000 m3    Full  Loss  Loss       1000 m3    Full    days hr:min        LPS
  --------------------------------------------------------------------------------------------------
  JK-storage               0.120      41     0     0         0.291     100       0  02:22     822.12
  CC-storage               3.037      19     0     0         3.810      24       0  03:16     200.00
  XR-storage               0.870      94     0     0         0.926     100       0  02:20     285.00
  
  
  ***********************
  Outfall Loading Summary
  ***********************
  
  -----------------------------------------------------------
                         Flow       Avg       Max       Total
                         Freq      Flow      Flow      Volume
  Outfall Node           Pcnt       LPS       LPS    10^6 ltr
  -----------------------------------------------------------
  WSC                   99.99    603.96    867.99      15.391
  3                     95.85    211.60    597.65       4.587
  4                     11.36      2.96      7.34       0.008
  5                      0.00      0.00      0.00       0.000
  -----------------------------------------------------------
  System                51.80    818.52   1266.69      19.985
  
  
  ********************
  Link Flow Summary
  ********************
  
  -----------------------------------------------------------------------------
                                 Maximum  Time of Max   Maximum    Max/    Max/
                                  |Flow|   Occurrence   |Veloc|    Full    Full
  Link                 Type          LPS  days hr:min     m/sec    Flow   Depth
  -----------------------------------------------------------------------------
  WS02003066WSF200     CONDUIT    559.31     0  02:21      2.77    0.09    0.24
  WS02006287WS02006284 CONDUIT    250.69     0  01:50      1.73    0.12    0.24
  WS02006284WS02006280 CONDUIT    250.77     0  01:50      1.97    0.11    0.22
  WS02006280WS02006229 CONDUIT    250.77     0  01:50      3.17    0.05    0.16
  WS02006229WS02006228 CONDUIT    550.64     0  02:17      1.10    1.82    1.00
  WS02006256WS02006235 CONDUIT    177.52     0  00:01      2.73    1.88    1.00
  WS02006253WS02006251 CONDUIT     56.39     0  01:45      0.51    0.17    0.72
  WS02006252WS02006251 CONDUIT    200.34     0  02:00      1.97    0.74    0.76
  WS02006251WS02006249 CONDUIT    247.44     0  02:17      0.96    0.71    0.73
  WS02006249WS02006248 CONDUIT    242.85     0  02:03      1.02    1.33    0.73
  WS02006248WS02006247 CONDUIT    240.68     0  02:30      1.00    0.52    0.78
  WS02006247WS02006245 CONDUIT    241.20     0  02:30      0.93    1.91    0.82
  WS02006245WS02006243 CONDUIT    241.66     0  02:29      0.99    0.71    0.85
  WS02006243WS02006242 CONDUIT    242.42     0  02:29      0.81    0.52    0.94
  WS02006242WS02006240 CONDUIT    242.46     0  02:29      0.76    0.96    0.99
  WS02006240WS02006239 CONDUIT    243.00     0  02:50      0.83    0.76    1.00
  WS02006239WS02006238 CONDUIT    243.56     0  02:50      0.77    0.78    1.00
  WS02006238WS02006235 CONDUIT    244.84     0  04:40      1.32    0.55    1.00
  WS02006235WS02006234 CONDUIT    329.60     0  03:10      0.95    3.48    1.00
  WS02006234WS02006232 CONDUIT    330.60     0  03:11      1.17    0.67    1.00
  WS02006232WS02006231 CONDUIT    330.68     0  03:12      0.95    0.69    0.99
  WS02006231WS02006230 CONDUIT    332.40     0  03:12      1.30    5.04    0.96
  WS02006230WS02006229 CONDUIT    344.97     0  03:12      0.90    7.68    1.00
  WS02006228WS02006109 CONDUIT    550.64     0  02:17      1.10    2.41    1.00
  WS02006116WS02004401 CONDUIT    561.13     0  02:18      0.78    0.77    0.86
  WS02006115WS02006116 CONDUIT    561.76     0  02:18      0.85    0.72    0.78
  WS02006113WS02006111 CONDUIT    575.09     0  02:19      2.49    0.69    0.47
  WS02006112WS02006115 CONDUIT    578.89     0  02:18      0.79    0.34    0.88
  WS02006111WS02006112 CONDUIT    558.08     0  02:16      1.54    0.27    0.68
  WS02006110WS02006113 CONDUIT    552.45     0  02:19      1.30    0.50    0.79
  WS02006109WS02006110 CONDUIT    551.85     0  02:17      1.10    1.06    1.00
  WS02004411WS02004412 CONDUIT    559.35     0  02:20      0.94    0.79    0.71
  WS02004401WS02004402 CONDUIT    560.86     0  02:17      0.77    0.67    0.88
  WS02004413WS02003067 CONDUIT    559.23     0  02:21      1.14    0.24    0.60
  WS02004412WS02004413 CONDUIT    559.54     0  02:21      0.84    0.37    0.79
  WS02004410WS02004411 CONDUIT    559.65     0  02:20      0.95    0.76    0.70
  WS02004409WS02004410 CONDUIT    559.69     0  02:20      0.97    0.72    0.69
  WS02004407WS02004409 CONDUIT    559.88     0  02:20      1.45    0.20    0.49
  WS02004406WS02004407 CONDUIT    560.16     0  02:19      1.06    0.25    0.64
  WS02004405WS02004406 CONDUIT    560.49     0  02:18      0.72    1.11    0.97
  WS02004404WS02004405 CONDUIT    560.47     0  02:19      0.72    5.49    0.97
  WS02004403WS02004404 CONDUIT    560.31     0  02:19      0.73    0.41    0.94
  WS02004402WS02004403 CONDUIT    560.31     0  02:17      0.75    0.80    0.90
  WS02004139WS02001211 CONDUIT    285.91     0  05:05      0.80    0.36    0.54
  WS02004138WS02004139 CONDUIT    290.01     0  00:00      3.34    0.06    0.39
  WS02003067WS02003066 CONDUIT    559.27     0  02:21      1.23    0.18    0.42
  WS02001213WS02003059 CONDUIT    296.00     0  05:03      0.80    0.49    0.73
  WS02001212WS02001213 CONDUIT    294.65     0  05:04      1.19    0.45    0.42
  WS02001211WS02001212 CONDUIT    293.96     0  05:05      0.67    0.22    0.59
  WS02003072WS02003073 CONDUIT    866.29     0  02:23      1.68    1.87    0.47
  WS02003069WS02003072 CONDUIT    866.35     0  02:22      1.58    0.42    0.49
  WS02003060WS02003069 CONDUIT    866.13     0  02:22      1.83    0.34    0.44
  WS02003059WS02003060 CONDUIT    297.94     0  05:03      0.82    0.19    0.63
  HS02004901HS02004770 CONDUIT     11.86     0  01:47      0.05    0.04    0.34
  HS02004876HS02004881 CONDUIT     44.96     0  01:50      0.68    0.48    0.09
  HS02004870HS02004876 CONDUIT     35.89     0  01:50      0.47    0.02    0.11
  HS02004842HS02004848 CONDUIT      7.96     0  02:16      0.04    0.00    0.28
  HS02004837HS02004842 CONDUIT      8.06     0  02:20      0.41    0.00    0.30
  HS02004830HS02004837 CONDUIT     28.75     0  01:51      0.48    0.03    0.09
  HS02004824HS02004830 CONDUIT     28.90     0  01:52      0.51    0.04    0.08
  HS02004817HS02004824 CONDUIT     52.78     0  02:16      0.18    0.02    0.42
  HS02004770HS02004777 CONDUIT     61.66     0  01:46      0.25    0.11    0.35
  HS02004799HS02004480 CONDUIT    155.54     0  01:47      0.65    0.20    0.34
  HS02004792HS02004799 CONDUIT    141.71     0  01:47      0.74    0.09    0.27
  HS02004788HS02004792 CONDUIT     82.36     0  01:48      0.88    0.05    0.13
  HS02004785HS02004788 CONDUIT     61.65     0  01:48      0.55    0.46    0.16
  HS02004777HS02004785 CONDUIT     61.54     0  01:47      0.30    0.08    0.29
  HS02004480HS02004478 CONDUIT    184.33     0  01:49      1.04    0.78    0.25
  HS02004479HS02004480 CONDUIT     29.23     0  01:51      0.28    0.03    0.33
  HS02004862HS02004870 CONDUIT     26.75     0  01:51      0.52    0.03    0.07
  HS02004848HS02004852 CONDUIT     11.37     0  01:51      0.35    0.01    0.05
  HS02004856HS02004862 CONDUIT     18.17     0  01:51      0.38    0.02    0.07
  HS02004852HS02004856 CONDUIT     11.35     0  01:52      0.16    0.01    0.10
  HS02004802HS02004478 CONDUIT     68.53     0  02:17      0.36    0.06    0.28
  HS02004478WS02006287 CONDUIT    250.70     0  01:50      1.43    0.07    0.19
  HS02004817HS02004807 CONDUIT     53.46     0  02:17      0.14    0.03    0.54
  HS02004807HS02004802 CONDUIT     68.45     0  02:16      0.30    0.13    0.33
  YS02001759YS02001757 CONDUIT    455.94     0  02:53      0.58    0.32    1.00
  YS02001762YS02001759 CONDUIT    234.15     0  02:53      0.30    0.27    1.00
  YS02001765YS02001762 CONDUIT    234.16     0  02:53      0.30    0.22    1.00
  YS02001770YS02001767 CONDUIT    233.83     0  02:53      0.38    0.93    1.00
  YS02001774YS02001770 CONDUIT    167.28     0  03:19      0.24    0.11    1.00
  YS02001779YS02001774 CONDUIT    167.65     0  03:19      0.21    0.08    1.00
  YS02001649YS02001757 CONDUIT    715.17     0  02:46      0.91    0.43    1.00
  YS02001767YS02001765 CONDUIT    234.22     0  02:53      0.35    0.29    1.00
  YS02006561YS02001783 CONDUIT    753.47     0  03:04      2.13    0.39    0.85
  YS02001783YS02001784 CONDUIT    753.65     0  03:03      1.58    1.04    1.00
  YS02001784YS02001785 CONDUIT    754.54     0  03:03      1.71    1.76    1.00
  YS02001788YS02001790 CONDUIT    754.68     0  03:03      2.24    0.56    1.00
  YS02001790YS02001791 CONDUIT    754.95     0  03:03      2.70    0.82    1.00
  YS02001791YS02001793 CONDUIT    755.10     0  03:04      5.45    0.32    1.00
  YS02001910YS02001907 CONDUIT    269.99     0  03:18      0.49    0.15    1.00
  YS02001786YS02001788 CONDUIT    754.61     0  03:03      2.15    1.45    1.00
  YS02001915YS02001910 CONDUIT    267.43     0  03:09      0.56    0.13    0.92
  YS02001918YS02001915 CONDUIT    110.81     0  03:17      0.44    0.06    0.66
  YS02001923YS02001920 CONDUIT    101.55     0  03:04      0.64    0.05    0.42
  YS02001926YS02001923 CONDUIT     91.45     0  03:01      0.74    0.13    0.21
  YS02001929YS02001926 CONDUIT     91.54     0  03:01      0.81    0.04    0.20
  YS02001920YS02001918 CONDUIT    107.21     0  03:16      0.63    0.10    0.52
  YS02001629YS02163301 CONDUIT    194.78     0  02:27      0.25    0.24    1.00
  YS02001619YS02001622 CONDUIT    172.67     0  02:19      0.65    0.25    1.00
  YS02001622YS02001625 CONDUIT    222.29     0  02:18      0.32    0.12    1.00
  YS02001625YS02001629 CONDUIT    222.40     0  02:18      0.29    0.11    1.00
  YS02163301YS02001633 CONDUIT    195.41     0  02:27      0.25    0.18    1.00
  YS02163601YS02164001 CONDUIT    352.38     0  02:59      0.45    0.31    1.00
  YS02164001YS02001641 CONDUIT    352.55     0  03:00      0.45    0.48    1.00
  YS02001641YS02001644 CONDUIT    352.37     0  02:59      0.45    1.14    1.00
  YS02001647YS02001649 CONDUIT    517.45     0  02:46      0.66    0.27    1.00
  YS02006553YS02006556 CONDUIT    526.52     0  03:06      0.67    0.45    1.00
  YS02006556YS02006558 CONDUIT    526.59     0  03:06      0.67    0.42    1.00
  YSB6556YSB1171       CONDUIT     16.50     0  01:50      0.07    0.02    0.60
  YS02001907YS02006553 CONDUIT    526.51     0  03:06      0.59    0.62    1.00
  YS02006558YS02006561 CONDUIT    753.47     0  03:02      3.16    1.67    0.97
  YS02001633YS02163601 CONDUIT    352.22     0  02:59      0.45    0.37    1.00
  YS02001644YS02001647 CONDUIT    517.07     0  02:46      0.66    0.30    1.00
  YS02001745YS02001748 CONDUIT    515.33     0  02:35      1.51    0.20    0.93
  YS02001748YS02001751 CONDUIT    467.04     0  02:15      1.12    0.24    1.00
  YS02001751YS02001754 CONDUIT    212.85     0  02:20      0.97    0.10    1.00
  YS02001754YS02001757 CONDUIT    212.36     0  02:36      0.33    0.09    1.00
  YS02001882YS02001884 CONDUIT     13.16     0  02:17      0.12    0.02    0.86
  YS02001884YS02001887 CONDUIT     24.27     0  02:18      0.09    0.03    0.96
  YS02001890YS02001895 CONDUIT    270.48     0  02:26      0.44    0.13    0.90
  YS02001895YS02001898 CONDUIT    269.70     0  02:26      0.56    0.47    0.79
  YS02001898YS02001901 CONDUIT    273.93     0  02:19      0.50    0.18    0.88
  YS02001901YS02001904 CONDUIT    267.34     0  02:20      0.45    0.41    0.93
  YS02001904YS02001907 CONDUIT    275.45     0  02:20      0.39    0.10    0.96
  YS02001887YS02001890 CONDUIT    268.12     0  03:00      0.39    0.46    1.00
  YS02001652YS02001649 CONDUIT    262.76     0  02:27      0.58    0.13    1.00
  YS02001655YS02001652 CONDUIT    263.19     0  02:27      1.05    0.13    1.00
  YS02001658YS02001655 CONDUIT    410.94     0  02:21      1.29    0.17    1.00
  YS02001661YS02001658 CONDUIT    608.88     0  02:29      1.59    0.24    1.00
  YS02001664YS02001661 CONDUIT    597.81     0  02:49      1.45    0.19    0.71
  YSB1154YSB6556       CONDUIT     16.24     0  01:49      0.16    0.03    0.49
  YSB1174YSB1171       CONDUIT     13.23     0  01:44      0.06    0.02    0.61
  YSB1171HS02004479    CONDUIT     29.01     0  01:50      0.54    0.02    0.47
  HS02004881HS02006253 CONDUIT     49.92     0  01:50      1.83    0.01    0.15
  YS02001793JiankangQianchi CONDUIT   1029.67     0  04:47     14.30    0.08    1.00
  YS02001757CaochengTiaoxuchi CONDUIT   1321.23     0  02:46      1.90    0.58    1.00
  WSF200WS02003060     CONDUIT    559.34     0  02:22      1.95    0.12    0.34
  1                    CONDUIT    867.99     0  02:24      3.20    0.30    0.38
  2                    CONDUIT      7.34     0  02:19      2.25    0.02    0.09
  3                    CONDUIT    597.65     0  00:00     10.05    0.95    0.86
  4                    CONDUIT      0.00     0  00:00      0.00    0.00    0.00
  CC-Pump-1            PUMP         0.00     0  00:00              0.00
  CC-Pump-2            PUMP       200.00     0  02:00              1.00
  JK-Pump-1            PUMP       300.00     0  00:00              1.00
  JK-Pump-2            PUMP       300.00     0  00:00              1.00
  XR-Pump-1            PUMP        95.00     0  00:00              1.00
  XR-Pump-2            PUMP         0.00     0  00:00              0.00
  XR-Pump-3            PUMP        95.00     0  00:00              1.00
  XR-Pump-4            PUMP        95.00     0  00:00              1.00
  
  
  ***************************
  Flow Classification Summary
  ***************************
  
  -------------------------------------------------------------------------------------
                      Adjusted    ---------- Fraction of Time in Flow Class ---------- 
                       /Actual         Up    Down  Sub   Sup   Up    Down  Norm  Inlet 
  Conduit               Length    Dry  Dry   Dry   Crit  Crit  Crit  Crit  Ltd   Ctrl  
  -------------------------------------------------------------------------------------
  WS02003066WSF200        1.00   0.07  0.00  0.00  0.00  0.93  0.00  0.00  0.60  0.00
  WS02006287WS02006284    1.00   0.03  0.01  0.00  0.59  0.37  0.00  0.00  0.70  0.00
  WS02006284WS02006280    1.00   0.04  0.00  0.00  0.00  0.00  0.00  0.96  0.00  0.00
  WS02006280WS02006229    1.00   0.04  0.00  0.00  0.00  0.00  0.00  0.96  0.00  0.00
  WS02006229WS02006228    1.00   0.00  0.00  0.00  0.99  0.00  0.00  0.01  0.00  0.00
  WS02006256WS02006235    1.00   0.00  0.00  0.00  1.00  0.00  0.00  0.00  0.00  0.00
  WS02006253WS02006251    1.00   0.02  0.01  0.00  0.97  0.00  0.00  0.00  0.00  0.00
  WS02006252WS02006251    1.00   0.06  0.00  0.00  0.00  0.00  0.94  0.00  0.00  0.00
  WS02006251WS02006249    1.00   0.00  0.00  0.00  1.00  0.00  0.00  0.00  0.19  0.00
  WS02006249WS02006248    1.00   0.00  0.02  0.00  0.93  0.00  0.05  0.00  0.00  0.00
  WS02006248WS02006247    1.00   0.02  0.00  0.00  0.97  0.00  0.00  0.01  0.08  0.00
  WS02006247WS02006245    1.00   0.02  0.00  0.00  0.97  0.00  0.00  0.02  0.00  0.00
  WS02006245WS02006243    1.00   0.01  0.00  0.00  0.96  0.00  0.00  0.03  0.02  0.00
  WS02006243WS02006242    1.00   0.01  0.00  0.00  0.99  0.00  0.00  0.00  0.17  0.00
  WS02006242WS02006240    1.00   0.00  0.00  0.00  0.99  0.00  0.00  0.00  0.00  0.00
  WS02006240WS02006239    1.00   0.00  0.00  0.00  0.97  0.00  0.00  0.03  0.01  0.00
  WS02006239WS02006238    1.00   0.00  0.00  0.00  1.00  0.00  0.00  0.00  0.00  0.00
  WS02006238WS02006235    1.00   0.00  0.00  0.00  1.00  0.00  0.00  0.00  0.00  0.00
  WS02006235WS02006234    1.00   0.00  0.00  0.00  0.97  0.00  0.03  0.00  0.00  0.00
  WS02006234WS02006232    1.00   0.00  0.00  0.00  1.00  0.00  0.00  0.00  0.07  0.00
  WS02006232WS02006231    1.00   0.00  0.00  0.00  0.99  0.00  0.01  0.00  0.00  0.00
  WS02006231WS02006230    1.00   0.00  0.00  0.00  0.49  0.00  0.51  0.00  0.00  0.00
  WS02006230WS02006229    1.00   0.00  0.00  0.00  0.99  0.00  0.00  0.01  0.01  0.00
  WS02006228WS02006109    1.00   0.00  0.00  0.00  1.00  0.00  0.00  0.00  0.00  0.00
  WS02006116WS02004401    1.00   0.02  0.00  0.00  0.98  0.00  0.00  0.00  0.00  0.00
  WS02006115WS02006116    1.00   0.02  0.00  0.00  0.97  0.00  0.00  0.01  0.01  0.00
  WS02006113WS02006111    1.00   0.02  0.00  0.00  0.00  0.98  0.00  0.00  0.10  0.00
  WS02006112WS02006115    1.00   0.02  0.00  0.00  0.98  0.00  0.00  0.00  0.00  0.00
  WS02006111WS02006112    1.00   0.02  0.00  0.00  0.98  0.00  0.00  0.00  0.98  0.00
  WS02006110WS02006113    1.00   0.01  0.00  0.00  0.98  0.00  0.00  0.00  0.00  0.00
  WS02006109WS02006110    1.00   0.00  0.01  0.00  0.98  0.00  0.00  0.00  0.00  0.00
  WS02004411WS02004412    1.00   0.04  0.00  0.00  0.96  0.00  0.00  0.00  0.00  0.00
  WS02004401WS02004402    1.00   0.02  0.00  0.00  0.98  0.00  0.00  0.00  0.00  0.00
  WS02004413WS02003067    1.00   0.05  0.01  0.00  0.00  0.00  0.94  0.00  0.00  0.00
  WS02004412WS02004413    1.00   0.05  0.00  0.00  0.95  0.00  0.00  0.00  0.00  0.00
  WS02004410WS02004411    1.00   0.04  0.00  0.00  0.96  0.00  0.00  0.00  0.00  0.00
  WS02004409WS02004410    1.00   0.04  0.00  0.00  0.96  0.00  0.00  0.00  0.00  0.00
  WS02004407WS02004409    1.00   0.04  0.00  0.00  0.95  0.00  0.00  0.00  0.81  0.00
  WS02004406WS02004407    1.00   0.00  0.04  0.00  0.96  0.00  0.00  0.00  0.00  0.00
  WS02004405WS02004406    1.00   0.00  0.00  0.00  1.00  0.00  0.00  0.00  0.02  0.00
  WS02004404WS02004405    1.00   0.00  0.00  0.00  1.00  0.00  0.00  0.00  0.00  0.00
  WS02004403WS02004404    1.00   0.00  0.02  0.00  0.98  0.00  0.00  0.00  0.02  0.00
  WS02004402WS02004403    1.00   0.02  0.00  0.00  0.98  0.00  0.00  0.00  0.00  0.00
  WS02004139WS02001211    1.00   0.00  0.00  0.00  0.99  0.00  0.01  0.00  0.00  0.00
  WS02004138WS02004139    1.00   0.00  0.00  0.00  0.99  0.01  0.00  0.00  1.00  0.00
  WS02003067WS02003066    1.00   0.06  0.01  0.00  0.94  0.00  0.00  0.00  0.00  0.00
  WS02001213WS02003059    1.00   0.00  0.00  0.00  0.99  0.00  0.00  0.00  0.00  0.00
  WS02001212WS02001213    1.00   0.00  0.00  0.00  0.91  0.00  0.08  0.00  0.00  0.00
  WS02001211WS02001212    1.00   0.00  0.00  0.00  1.00  0.00  0.00  0.00  0.00  0.00
  WS02003072WS02003073    1.00   0.00  0.00  0.00  0.00  0.00  0.00  1.00  0.00  0.00
  WS02003069WS02003072    1.00   0.00  0.00  0.00  0.99  0.01  0.00  0.00  0.20  0.00
  WS02003060WS02003069    1.00   0.00  0.00  0.00  0.98  0.02  0.00  0.00  0.11  0.00
  WS02003059WS02003060    1.00   0.00  0.00  0.00  0.99  0.01  0.00  0.00  0.01  0.00
  HS02004901HS02004770    1.00   0.03  0.00  0.00  0.97  0.00  0.00  0.00  0.00  0.00
  HS02004876HS02004881    1.00   0.02  0.00  0.00  0.98  0.00  0.00  0.00  0.00  0.00
  HS02004870HS02004876    1.00   0.01  0.00  0.00  0.99  0.00  0.00  0.00  0.95  0.00
  HS02004842HS02004848    1.00   0.00  0.03  0.00  0.97  0.00  0.00  0.00  0.58  0.00
  HS02004837HS02004842    1.00   0.00  0.00  0.00  0.99  0.01  0.00  0.00  0.11  0.00
  HS02004830HS02004837    1.00   0.00  0.00  0.00  1.00  0.00  0.00  0.00  0.99  0.00
  HS02004824HS02004830    1.00   0.00  0.00  0.00  1.00  0.00  0.00  0.00  0.00  0.00
  HS02004817HS02004824    1.00   0.00  0.00  0.00  1.00  0.00  0.00  0.00  1.00  0.00
  HS02004770HS02004777    1.00   0.00  0.03  0.00  0.97  0.00  0.00  0.00  0.03  0.00
  HS02004799HS02004480    1.00   0.00  0.02  0.00  0.96  0.00  0.02  0.00  0.00  0.00
  HS02004792HS02004799    1.00   0.00  0.00  0.00  0.99  0.01  0.00  0.00  0.98  0.00
  HS02004788HS02004792    1.00   0.00  0.00  0.00  0.99  0.01  0.00  0.00  0.98  0.00
  HS02004785HS02004788    1.00   0.00  0.00  0.00  1.00  0.00  0.00  0.00  0.00  0.00
  HS02004777HS02004785    1.00   0.00  0.00  0.00  1.00  0.00  0.00  0.00  0.12  0.00
  HS02004480HS02004478    1.00   0.03  0.00  0.00  0.65  0.00  0.00  0.32  0.00  0.00
  HS02004479HS02004480    1.00   0.02  0.00  0.00  0.98  0.00  0.00  0.00  0.12  0.00
  HS02004862HS02004870    1.00   0.00  0.00  0.00  1.00  0.00  0.00  0.00  0.04  0.00
  HS02004848HS02004852    1.00   0.03  0.00  0.00  0.97  0.00  0.00  0.00  0.77  0.00
  HS02004856HS02004862    1.00   0.00  0.04  0.00  0.96  0.00  0.00  0.00  0.83  0.00
  HS02004852HS02004856    1.00   0.03  0.00  0.00  0.96  0.00  0.00  0.00  0.86  0.00
  HS02004802HS02004478    1.00   0.03  0.00  0.00  0.96  0.00  0.00  0.00  0.03  0.00
  HS02004478WS02006287    1.00   0.04  0.00  0.00  0.72  0.24  0.00  0.00  0.68  0.00
  HS02004817HS02004807    1.00   0.00  0.03  0.00  0.97  0.00  0.00  0.00  0.01  0.00
  HS02004807HS02004802    1.00   0.03  0.00  0.00  0.96  0.00  0.00  0.00  0.00  0.00
  YS02001759YS02001757    1.00   0.00  0.00  0.00  1.00  0.00  0.00  0.00  0.16  0.00
  YS02001762YS02001759    1.00   0.00  0.00  0.00  1.00  0.00  0.00  0.00  0.03  0.00
  YS02001765YS02001762    1.00   0.00  0.00  0.00  1.00  0.00  0.00  0.00  0.14  0.00
  YS02001770YS02001767    1.00   0.00  0.00  0.00  1.00  0.00  0.00  0.00  0.00  0.00
  YS02001774YS02001770    1.00   0.00  0.03  0.00  0.97  0.00  0.00  0.00  0.03  0.00
  YS02001779YS02001774    1.00   0.00  0.00  0.00  1.00  0.00  0.00  0.00  0.18  0.00
  YS02001649YS02001757    1.00   0.00  0.00  0.00  1.00  0.00  0.00  0.00  0.16  0.00
  YS02001767YS02001765    1.00   0.00  0.00  0.00  1.00  0.00  0.00  0.00  0.00  0.00
  YS02006561YS02001783    1.00   0.04  0.00  0.00  0.24  0.71  0.00  0.00  0.57  0.00
  YS02001783YS02001784    1.00   0.00  0.04  0.00  0.96  0.00  0.00  0.00  0.00  0.00
  YS02001784YS02001785    1.00   0.00  0.00  0.00  1.00  0.00  0.00  0.00  0.17  0.00
  YS02001788YS02001790    1.00   0.00  0.00  0.00  0.33  0.67  0.00  0.00  0.53  0.00
  YS02001790YS02001791    1.00   0.00  0.00  0.00  0.33  0.67  0.00  0.00  0.53  0.00
  YS02001791YS02001793    1.00   0.00  0.00  0.00  0.35  0.65  0.00  0.00  0.03  0.00
  YS02001910YS02001907    1.00   0.00  0.00  0.00  0.98  0.00  0.00  0.02  0.12  0.00
  YS02001786YS02001788    1.00   0.00  0.00  0.00  0.31  0.69  0.00  0.00  0.00  0.00
  YS02001915YS02001910    1.00   0.00  0.00  0.00  0.99  0.01  0.00  0.00  0.16  0.00
  YS02001918YS02001915    1.00   0.00  0.01  0.00  0.99  0.00  0.00  0.00  0.60  0.00
  YS02001923YS02001920    1.00   0.00  0.00  0.00  1.00  0.00  0.00  0.00  0.93  0.00
  YS02001926YS02001923    1.00   0.00  0.02  0.00  0.00  0.00  0.98  0.00  0.00  0.00
  YS02001929YS02001926    1.00   0.00  0.03  0.00  0.97  0.00  0.00  0.00  0.87  0.00
  YS02001920YS02001918    1.00   0.00  0.01  0.00  0.99  0.00  0.00  0.00  0.00  0.00
  YS02001629YS02163301    1.00   0.04  0.00  0.00  0.96  0.00  0.00  0.00  0.00  0.00
  YS02001619YS02001622    1.00   0.03  0.00  0.00  0.97  0.00  0.00  0.00  0.00  0.00
  YS02001622YS02001625    1.00   0.03  0.00  0.00  0.97  0.00  0.00  0.00  0.04  0.00
  YS02001625YS02001629    1.00   0.03  0.01  0.00  0.94  0.00  0.01  0.00  0.00  0.00
  YS02163301YS02001633    1.00   0.00  0.04  0.00  0.96  0.00  0.00  0.00  0.00  0.00
  YS02163601YS02164001    1.00   0.00  0.03  0.00  0.97  0.00  0.00  0.00  0.00  0.00
  YS02164001YS02001641    1.00   0.01  0.02  0.00  0.97  0.00  0.00  0.00  0.06  0.00
  YS02001641YS02001644    1.00   0.00  0.01  0.00  0.99  0.00  0.00  0.00  0.00  0.00
  YS02001647YS02001649    1.00   0.00  0.04  0.00  0.96  0.00  0.00  0.00  0.01  0.00
  YS02006553YS02006556    1.00   0.01  0.00  0.00  0.99  0.00  0.00  0.00  0.03  0.00
  YS02006556YS02006558    1.00   0.00  0.00  0.00  1.00  0.00  0.00  0.00  0.00  0.00
  YSB6556YSB1171          1.00   0.02  0.01  0.00  0.97  0.00  0.00  0.00  0.00  0.00
  YS02001907YS02006553    1.00   0.00  0.01  0.00  0.98  0.00  0.00  0.00  0.00  0.00
  YS02006558YS02006561    1.00   0.04  0.00  0.00  0.06  0.89  0.00  0.00  0.52  0.00
  YS02001633YS02163601    1.00   0.00  0.01  0.00  0.99  0.00  0.00  0.00  0.15  0.00
  YS02001644YS02001647    1.00   0.00  0.04  0.00  0.96  0.00  0.00  0.00  0.00  0.00
  YS02001745YS02001748    1.00   0.00  0.00  0.00  0.90  0.01  0.00  0.08  0.04  0.00
  YS02001748YS02001751    1.00   0.00  0.00  0.00  0.98  0.02  0.00  0.00  0.14  0.00
  YS02001751YS02001754    1.00   0.00  0.00  0.00  0.95  0.00  0.00  0.05  0.02  0.00
  YS02001754YS02001757    1.00   0.00  0.00  0.00  0.99  0.01  0.00  0.00  0.18  0.00
  YS02001882YS02001884    1.00   0.04  0.00  0.00  0.96  0.00  0.00  0.00  0.00  0.00
  YS02001884YS02001887    1.00   0.02  0.01  0.00  0.97  0.00  0.00  0.00  0.00  0.00
  YS02001890YS02001895    1.00   0.00  0.04  0.00  0.96  0.00  0.00  0.00  0.00  0.00
  YS02001895YS02001898    1.00   0.04  0.00  0.00  0.96  0.00  0.01  0.00  0.00  0.00
  YS02001898YS02001901    1.00   0.04  0.00  0.00  0.96  0.00  0.00  0.00  0.01  0.00
  YS02001901YS02001904    1.00   0.04  0.00  0.00  0.96  0.00  0.00  0.00  0.00  0.00
  YS02001904YS02001907    1.00   0.00  0.04  0.00  0.96  0.00  0.00  0.00  0.00  0.00
  YS02001887YS02001890    1.00   0.00  0.00  0.00  0.98  0.00  0.01  0.00  0.00  0.00
  YS02001652YS02001649    1.00   0.00  0.00  0.00  1.00  0.00  0.00  0.00  0.16  0.00
  YS02001655YS02001652    1.00   0.00  0.00  0.00  0.95  0.00  0.00  0.05  0.02  0.00
  YS02001658YS02001655    1.00   0.00  0.04  0.00  0.94  0.02  0.00  0.00  0.05  0.00
  YS02001661YS02001658    1.00   0.04  0.00  0.00  0.90  0.06  0.00  0.00  0.04  0.00
  YS02001664YS02001661    1.00   0.03  0.00  0.00  0.87  0.10  0.00  0.00  0.21  0.00
  YSB1154YSB6556          1.00   0.03  0.00  0.00  0.97  0.00  0.00  0.00  0.02  0.00
  YSB1174YSB1171          1.00   0.02  0.01  0.00  0.97  0.00  0.00  0.00  0.00  0.00
  YSB1171HS02004479       1.00   0.02  0.00  0.00  0.98  0.00  0.00  0.00  0.10  0.00
  HS02004881HS02006253    1.00   0.02  0.00  0.00  0.85  0.02  0.00  0.11  0.73  0.00
  YS02001793JiankangQianchi    1.00   0.00  0.00  0.00  0.51  0.49  0.00  0.00  0.12  0.00
  YS02001757CaochengTiaoxuchi    1.00   0.00  0.06  0.00  0.94  0.00  0.00  0.00  0.00  0.00
  WSF200WS02003060        1.00   0.00  0.07  0.00  0.74  0.19  0.00  0.00  0.06  0.00
  1                       1.00   0.00  0.00  0.00  0.00  1.00  0.00  0.00  0.39  0.00
  2                       1.00   0.88  0.00  0.00  0.00  0.12  0.00  0.00  0.01  0.00
  3                       1.00   0.04  0.00  0.00  0.00  0.96  0.00  0.00  0.01  0.00
  4                       1.00   1.00  0.00  0.00  0.00  0.00  0.00  0.00  0.00  0.00
  
  
  *************************
  Conduit Surcharge Summary
  *************************
  
  ----------------------------------------------------------------------------
                                                           Hours        Hours 
                         --------- Hours Full --------   Above Full   Capacity
  Conduit                Both Ends  Upstream  Dnstream   Normal Flow   Limited
  ----------------------------------------------------------------------------
  WS02006229WS02006228        1.71      1.76      1.71      5.89         1.71
  WS02006256WS02006235        6.28      6.28      7.33      5.04         0.01
  WS02006249WS02006248        0.01      0.01      0.01      5.56         0.01
  WS02006247WS02006245        0.01      0.01      0.01      5.79         0.01
  WS02006243WS02006242        0.01      0.01      0.39      0.01         0.01
  WS02006242WS02006240        0.01      0.01      0.83      0.01         0.01
  WS02006240WS02006239        0.01      0.01      0.39      0.01         0.01
  WS02006239WS02006238        0.99      0.99      1.09      0.01         0.01
  WS02006238WS02006235        1.07      1.07      1.17      0.01         0.01
  WS02006235WS02006234        0.60      0.60      1.02      6.30         0.01
  WS02006234WS02006232        0.83      0.83      1.29      0.01         0.01
  WS02006232WS02006231        0.01      0.01      1.29      0.01         0.01
  WS02006231WS02006230        0.01      0.01      0.01      6.26         0.01
  WS02006230WS02006229        2.44      5.56      2.44      6.33         2.44
  WS02006228WS02006109        1.73      2.03      1.73      6.14         1.73
  WS02006112WS02006115        0.01      0.01      1.16      0.01         0.01
  WS02006111WS02006112        0.01      0.01      5.88      0.01         0.01
  WS02006110WS02006113        0.01      0.01      1.84      0.01         0.01
  WS02006109WS02006110        0.72      0.72      2.03      0.73         0.01
  WS02004405WS02004406        0.01      0.01      0.01      1.06         0.01
  WS02004404WS02004405        0.01      0.01      0.01      6.23         0.01
  WS02003072WS02003073        0.01      0.01      0.01      6.00         0.01
  YS02001759YS02001757        5.97      5.97      6.03      0.01         0.01
  YS02001762YS02001759        5.94      5.94      5.97      0.01         0.01
  YS02001765YS02001762        5.92      5.92      5.94      0.01         0.01
  YS02001770YS02001767        5.90      5.90      5.90      0.01         0.75
  YS02001774YS02001770        5.88      5.88      5.93      0.01         0.01
  YS02001779YS02001774        5.68      5.68      5.93      0.01         0.01
  YS02001649YS02001757        5.94      5.94      6.03      0.01         0.01
  YS02001767YS02001765        5.90      5.90      5.92      0.01         0.01
  YS02006561YS02001783        0.01      0.01      1.02      0.01         0.01
  YS02001783YS02001784        1.02      1.02      1.09      0.31         0.27
  YS02001784YS02001785        1.02      1.09      1.02      1.87         1.01
  YS02001788YS02001790        1.01      1.01      1.62      0.01         0.01
  YS02001790YS02001791        1.62      1.62      1.65      0.01         0.01
  YS02001791YS02001793        1.65      1.65      2.14      0.01         0.01
  YS02001910YS02001907        0.21      0.21      1.23      0.01         0.01
  YS02001786YS02001788        1.01      1.02      1.01      1.51         1.00
  YS02001915YS02001910        0.01      0.01      0.21      0.01         0.01
  YS02001629YS02163301        5.88      5.88      5.89      0.01         0.01
  YS02001619YS02001622        5.38      5.38      5.47      0.01         0.02
  YS02001622YS02001625        5.47      5.47      5.83      0.01         0.01
  YS02001625YS02001629        5.42      5.42      5.83      0.01         0.01
  YS02163301YS02001633        5.89      5.89      5.92      0.01         0.01
  YS02163601YS02164001        5.92      5.92      5.95      0.01         0.01
  YS02164001YS02001641        5.92      5.92      5.93      0.01         0.03
  YS02001641YS02001644        5.93      5.93      5.93      0.72         1.02
  YS02001647YS02001649        5.78      5.78      5.94      0.01         0.01
  YS02006553YS02006556        0.67      0.67      1.31      0.01         0.01
  YS02006556YS02006558        1.01      1.01      1.41      0.01         0.01
  YS02001907YS02006553        1.92      1.92      2.14      0.01         0.01
  YS02006558YS02006561        0.01      0.59      0.01      1.76         0.01
  YS02001633YS02163601        5.91      5.91      5.95      0.01         0.01
  YS02001644YS02001647        5.79      5.79      5.93      0.01         0.01
  YS02001745YS02001748        0.01      0.01      5.13      0.01         0.01
  YS02001748YS02001751        5.20      5.20      5.40      0.01         0.01
  YS02001751YS02001754        5.40      5.40      5.70      0.01         0.01
  YS02001754YS02001757        5.77      5.77      6.03      0.01         0.01
  YS02001890YS02001895        0.01      0.01      0.26      0.01         0.01
  YS02001904YS02001907        0.01      0.01      1.36      0.01         0.01
  YS02001887YS02001890        0.02      0.02      0.15      0.01         0.01
  YS02001652YS02001649        5.81      5.81      5.94      0.01         0.01
  YS02001655YS02001652        5.44      5.44      5.75      0.01         0.01
  YS02001658YS02001655        5.16      5.16      5.44      0.01         0.01
  YS02001661YS02001658        0.18      0.18      5.16      0.01         0.01
  YS02001664YS02001661        0.01      0.01      1.09      0.01         0.01
  YS02001793JiankangQianchi        2.10      2.10      3.09      0.01         0.01
  YS02001757CaochengTiaoxuchi        5.08      5.08      6.03      0.01         0.01
  3                           0.01      0.01      0.01      0.01         0.01
  
  
  ***************
  Pumping Summary
  ***************
  
  ---------------------------------------------------------------------------------------------------------
                                                  Min       Avg       Max     Total     Power    % Time Off
                        Percent   Number of      Flow      Flow      Flow    Volume     Usage    Pump Curve
  Pump                 Utilized   Start-Ups       LPS       LPS       LPS  10^6 ltr     Kw-hr    Low   High
  ---------------------------------------------------------------------------------------------------------
  CC-Pump-1                0.00           0      0.00      0.00      0.00     0.000      0.00    0.0    0.0
  CC-Pump-2               79.00           1      0.00    187.05    200.00     4.191      4.47    0.0    8.8
  JK-Pump-1               63.82           9      0.00    135.84    300.00     1.964     26.32    0.0    0.0
  JK-Pump-2              100.00           1      0.00    215.31    300.00     5.003     56.44    0.0    0.0
  XR-Pump-1               91.48           6      0.00     71.72     95.00     1.796     12.89    0.0    0.0
  XR-Pump-2                0.00           0      0.00      0.00      0.00     0.000      0.00    0.0    0.0
  XR-Pump-3              100.00           3      0.00     85.82     95.00     2.451     17.94    0.0    0.0
  XR-Pump-4               95.74           5      0.00     84.54     95.00     2.337     17.52    0.0    0.0
  

  Analysis begun on:  Tue Jan  4 23:41:33 2022
  Analysis ended on:  Tue Jan  4 23:41:37 2022
  Total elapsed time: 00:00:04