
  EPA STORM WATER MANAGEMENT MODEL - VERSION 5.1 (Build 5.3.0.dev0)
  --------------------------------------------------------------

  WARNING 04: minimum elevation drop used for Conduit WS02004404WS02004405
  WARNING 03: negative offset ignored for Link YS02001904YS02001907
  
  *********************************************************
  NOTE: The summary statistics displayed in this report are
  based on results found at every computational time step,  
  not just on results from each reporting time step.
  *********************************************************
  
  ****************
  Analysis Options
  ****************
  Flow Units ............... LPS
  Process Models:
    Rainfall/Runoff ........ YES
    RDII ................... NO
    Snowmelt ............... NO
    Groundwater ............ NO
    Flow Routing ........... YES
    Ponding Allowed ........ NO
    Water Quality .......... NO
  Infiltration Method ...... HORTON
  Flow Routing Method ...... DYNWAVE
  Surcharge Method ......... EXTRAN
  Starting Date ............ 08/28/2015 08:00:00
  Ending Date .............. 08/28/2015 18:00:00
  Antecedent Dry Days ...... 8.0
  Report Time Step ......... 00:01:00
  Wet Time Step ............ 00:01:00
  Dry Time Step ............ 00:01:00
  Routing Time Step ........ 5.00 sec
  Variable Time Step ....... YES
  Maximum Trials ........... 8
  Number of Threads ........ 4
  Head Tolerance ........... 0.001500 m
  
  
  **************************        Volume         Depth
  Runoff Quantity Continuity     hectare-m            mm
  **************************     ---------       -------
  Total Precipitation ......         5.556        12.164
  Evaporation Loss .........         0.000         0.000
  Infiltration Loss ........         1.434         3.139
  Surface Runoff ...........         3.246         7.107
  Final Storage ............         0.877         1.919
  Continuity Error (%) .....        -0.009
  
  
  **************************        Volume        Volume
  Flow Routing Continuity        hectare-m      10^6 ltr
  **************************     ---------     ---------
  Dry Weather Inflow .......         0.787         7.870
  Wet Weather Inflow .......         3.246        32.457
  Groundwater Inflow .......         0.000         0.000
  RDII Inflow ..............         0.000         0.000
  External Inflow ..........         0.131         1.307
  External Outflow .........         1.525        15.251
  Flooding Loss ............         2.167        21.672
  Evaporation Loss .........         0.000         0.000
  Exfiltration Loss ........         0.000         0.000
  Initial Stored Volume ....         0.076         0.761
  Final Stored Volume ......         0.573         5.735
  Continuity Error (%) .....        -0.620
  
  
  *************************
  Highest Continuity Errors
  *************************
  Node HS02004842 (16.11%)
  Node YS02001884 (9.62%)
  Node YSB1171 (3.09%)
  Node HS02004817 (2.70%)
  Node JK-storage (-2.39%)
  
  
  ***************************
  Time-Step Critical Elements
  ***************************
  Link WS02006252WS02006251 (39.76%)
  Link YS02006556YS02006558 (19.29%)
  Link WS02006280WS02006229 (18.65%)
  Link 3 (8.82%)
  Link WS02006238WS02006235 (2.56%)
  
  
  ********************************
  Highest Flow Instability Indexes
  ********************************
  Link WS02006113WS02006111 (40)
  Link WS02006111WS02006112 (20)
  Link YS02163601YS02164001 (20)
  Link YS02001619YS02001622 (19)
  Link YS02001629YS02163301 (19)
  
  
  *************************
  Routing Time Step Summary
  *************************
  Minimum Time Step           :     0.50 sec
  Average Time Step           :     1.77 sec
  Maximum Time Step           :     5.00 sec
  Percent in Steady State     :     0.00
  Average Iterations per Step :     3.27
  Percent Not Converging      :    13.46
  
  
  ***************************
  Subcatchment Runoff Summary
  ***************************
  
  ------------------------------------------------------------------------------------------------------------------------------
                            Total      Total      Total      Total     Imperv       Perv      Total       Total     Peak  Runoff
                           Precip      Runon       Evap      Infil     Runoff     Runoff     Runoff      Runoff   Runoff   Coeff
  Subcatchment                 mm         mm         mm         mm         mm         mm         mm    10^6 ltr      LPS
  ------------------------------------------------------------------------------------------------------------------------------
  sub0                      12.16       0.00       0.00       0.85      10.05       0.00      10.05        0.01     1.91   0.826
  sub1                      12.16       0.00       0.00       1.34       9.59       0.00       9.59        0.06    14.15   0.788
  sub2                      12.16       0.00       0.00       4.50       6.78       0.00       6.78        0.06    13.75   0.557
  sub3                      12.16       0.00       0.00       4.50       6.75       0.00       6.75        0.15    32.07   0.555
  sub4                      12.16       0.00       0.00       1.34       9.49       0.00       9.49        0.20    40.20   0.780
  sub5                      12.16       0.00       0.00       0.85      10.02       0.00      10.02        0.11    25.19   0.824
  sub7                      12.16       0.00       0.00       1.09       9.82       0.00       9.82        0.03     7.55   0.808
  sub8                      12.16       0.00       0.00       1.09       9.82       0.00       9.82        0.06    14.17   0.807
  sub9                      12.16       0.00       0.00       1.09       9.82       0.00       9.82        0.05    10.64   0.807
  sub10                     12.16       0.00       0.00       0.97       9.92       0.00       9.92        0.11    24.40   0.815
  sub11                     12.16       0.00       0.00       0.97       9.93       0.00       9.93        0.12    26.15   0.816
  sub12                     12.16       0.00       0.00       1.58       9.40       0.00       9.40        0.08    19.06   0.773
  sub14                     12.16       0.00       0.00       1.09       9.82       0.00       9.82        0.09    21.02   0.807
  sub15                     12.16       0.00       0.00       3.65       7.55       0.00       7.55        0.13    29.11   0.621
  sub16                     12.16       0.00       0.00       4.01       7.24       0.00       7.24        0.08    17.47   0.595
  sub17                     12.16       0.00       0.00       3.89       7.34       0.00       7.34        0.06    14.47   0.604
  sub22                     12.16       0.00       0.00       5.23       6.15       0.00       6.15        0.39    88.27   0.506
  sub23                     12.16       0.00       0.00       4.50       6.80       0.00       6.80        0.32    73.89   0.559
  sub60                     12.16       0.00       0.00       1.46       8.26       0.00       8.26        2.50   297.17   0.679
  sub61                     12.16       0.00       0.00       2.07       8.23       0.00       8.23        2.54   359.80   0.677
  sub62                     12.16       0.00       0.00       0.97       9.00       0.00       9.00        2.77   372.87   0.740
  sub63                     12.16       0.00       0.00       3.53       7.16       0.00       7.16        2.17   327.80   0.589
  sub64                     12.16       0.00       0.00       1.82       7.94       0.00       7.94        2.41   282.66   0.653
  sub65                     12.16       0.00       0.00       1.58       8.08       0.00       8.08        2.49   287.20   0.665
  sub66                     12.16       0.00       0.00       3.53       6.77       0.00       6.77        2.07   257.27   0.556
  sub67                     12.16       0.00       0.00       0.97       9.36       0.00       9.36        2.89   452.90   0.769
  sub68                     12.16       0.00       0.00       1.70       8.63       0.00       8.63        2.65   391.99   0.709
  sub69                     12.16       0.00       0.00       1.82       8.82       0.00       8.82        2.06   355.79   0.725
  sub70                     12.16       9.00       0.00       7.10      12.09       0.10      12.19        2.79   335.00   0.576
  sub71                     12.16       0.00       0.00       0.97       8.83       0.00       8.83        2.08   263.63   0.726
  sub72                     12.16       0.00       0.00       0.85       7.42       0.00       7.42        1.51   129.40   0.610
  sub73                     12.16      11.86       0.00       8.09      13.55       0.08      13.63        3.20   300.52   0.567
  sub74                     12.16       0.00       0.00       9.12       2.62       0.00       2.62        1.05   189.59   0.215
  
  
  ******************
  Node Depth Summary
  ******************
  
  ---------------------------------------------------------------------------------
                                 Average  Maximum  Maximum  Time of Max    Reported
                                   Depth    Depth      HGL   Occurrence   Max Depth
  Node                 Type       Meters   Meters   Meters  days hr:min      Meters
  ---------------------------------------------------------------------------------
  WS02001211           JUNCTION     0.65     0.71     5.55     0  03:12        0.71
  WS02001212           JUNCTION     0.37     0.43     5.50     0  03:11        0.43
  WS02001213           JUNCTION     0.59     0.68     5.44     0  03:10        0.68
  WS02003069           JUNCTION     0.38     0.51     5.10     0  03:09        0.51
  WS02003072           JUNCTION     0.45     0.58     4.95     0  03:10        0.58
  WS02003073           JUNCTION     0.27     0.35     4.42     0  03:11        0.35
  WS02003060           JUNCTION     0.34     0.45     5.39     0  03:09        0.45
  WS02003066           JUNCTION     0.18     0.28     5.83     0  03:08        0.28
  WS02003059           JUNCTION     0.65     0.74     5.43     0  03:10        0.74
  WS02003067           JUNCTION     0.47     0.67     5.99     0  03:08        0.67
  WS02004401           JUNCTION     0.56     0.78     6.78     0  03:05        0.78
  WS02004402           JUNCTION     0.59     0.81     6.77     0  03:05        0.81
  WS02004403           JUNCTION     0.61     0.83     6.76     0  03:05        0.83
  WS02004404           JUNCTION     0.69     0.91     6.76     0  03:05        0.91
  WS02004406           JUNCTION     0.70     0.91     6.74     0  03:05        0.91
  WS02004409           JUNCTION     0.36     0.60     6.37     0  03:06        0.60
  WS02004410           JUNCTION     0.39     0.62     6.34     0  03:07        0.62
  WS02004411           JUNCTION     0.41     0.63     6.31     0  03:07        0.63
  WS02004412           JUNCTION     0.43     0.65     6.29     0  03:07        0.65
  WS02004413           JUNCTION     0.58     0.81     6.28     0  03:08        0.81
  WS02004405           JUNCTION     0.69     0.90     6.75     0  03:05        0.90
  WS02006109           JUNCTION     0.63     0.87     7.49     0  03:02        0.87
  WS02006110           JUNCTION     0.64     0.85     7.43     0  03:03        0.85
  WS02006111           JUNCTION     0.17     0.26     6.97     0  03:04        0.26
  WS02006112           JUNCTION     0.71     0.97     6.85     0  03:04        0.97
  WS02006113           JUNCTION     0.26     0.41     7.30     0  03:03        0.41
  WS02006115           JUNCTION     0.44     0.68     6.82     0  03:04        0.68
  WS02006116           JUNCTION     0.53     0.76     6.80     0  03:05        0.76
  WS02006230           JUNCTION     0.56     0.84     7.59     0  08:23        0.84
  WS02006231           JUNCTION     0.32     0.58     7.70     0  08:23        0.58
  WS02006232           JUNCTION     0.43     0.73     7.77     0  08:22        0.73
  WS02006234           JUNCTION     0.34     0.68     7.84     0  08:22        0.68
  WS02006235           JUNCTION     0.37     0.72     7.88     0  08:22        0.72
  WS02006238           JUNCTION     0.39     0.75     7.89     0  08:22        0.74
  WS02006240           JUNCTION     0.31     0.67     7.97     0  09:50        0.67
  WS02006242           JUNCTION     0.37     0.75     8.01     0  09:50        0.75
  WS02006243           JUNCTION     0.27     0.64     8.06     0  09:50        0.64
  WS02006245           JUNCTION     0.28     0.61     8.10     0  09:50        0.61
  WS02006247           JUNCTION     0.29     0.63     8.13     0  09:50        0.63
  WS02006248           JUNCTION     0.25     0.57     8.16     0  09:50        0.57
  WS02006249           JUNCTION     0.29     0.59     8.19     0  09:50        0.59
  WS02006239           JUNCTION     0.35     0.72     7.93     0  08:22        0.72
  WS02006251           JUNCTION     0.27     0.61     8.28     0  09:50        0.61
  WS02006252           JUNCTION     0.21     0.58     8.83     0  08:40        0.58
  WS02006253           JUNCTION     0.31     0.64     8.28     0  09:49        0.64
  WS02006256           JUNCTION     0.68     1.20     8.14     0  08:30        1.20
  WS02004138           JUNCTION     0.15     0.17     7.42     0  00:00        0.17
  WS02004407           JUNCTION     0.17     0.27     6.58     0  03:06        0.27
  WS02006228           JUNCTION     0.61     0.89     7.54     0  03:02        0.89
  WS02006229           JUNCTION     0.58     0.87     7.56     0  03:02        0.87
  WS02006280           JUNCTION     0.06     0.19     8.46     0  03:02        0.19
  WS02006284           JUNCTION     0.36     0.55     8.95     0  03:02        0.55
  WS02006287           JUNCTION     0.08     0.28     9.24     0  03:01        0.28
  WSF200               JUNCTION     0.16     0.28     5.51     0  03:08        0.28
  HS02004901           JUNCTION     0.11     0.28    10.10     0  03:01        0.28
  HS02004881           JUNCTION     0.01     0.04     9.07     0  03:01        0.04
  HS02004876           JUNCTION     0.03     0.12     9.15     0  03:01        0.12
  HS02004870           JUNCTION     0.01     0.06     9.35     0  03:01        0.06
  HS02004862           JUNCTION     0.01     0.07     9.46     0  03:01        0.07
  HS02004856           JUNCTION     0.08     0.13     9.55     0  03:01        0.13
  HS02004852           JUNCTION     0.01     0.05     9.56     0  03:01        0.05
  HS02004848           JUNCTION     0.01     0.05     9.65     0  03:01        0.05
  HS02004842           JUNCTION     0.33     0.38     9.65     0  03:01        0.38
  HS02004837           JUNCTION     0.03     0.07     9.65     0  03:01        0.07
  HS02004830           JUNCTION     0.04     0.08     9.55     0  03:01        0.08
  HS02004824           JUNCTION     0.02     0.06     9.46     0  03:01        0.06
  HS02004817           JUNCTION     0.43     0.60     9.44     0  03:01        0.60
  HS02004807           JUNCTION     0.12     0.27     9.44     0  03:01        0.27
  HS02004802           JUNCTION     0.15     0.30     9.43     0  03:01        0.30
  HS02004799           JUNCTION     0.11     0.33     9.54     0  03:01        0.33
  HS02004792           JUNCTION     0.03     0.14     9.66     0  03:01        0.14
  HS02004788           JUNCTION     0.02     0.10    10.00     0  03:01        0.10
  HS02004785           JUNCTION     0.04     0.17    10.07     0  03:01        0.17
  HS02004777           JUNCTION     0.14     0.30    10.10     0  03:01        0.30
  HS02004770           JUNCTION     0.11     0.27    10.10     0  03:01        0.27
  HS02004480           JUNCTION     0.07     0.26     9.50     0  03:01        0.26
  HS02004479           JUNCTION     0.10     0.30     9.50     0  03:01        0.30
  HS02004478           JUNCTION     0.06     0.18     9.41     0  03:01        0.18
  YS02001745           JUNCTION     0.66     0.91     8.42     0  03:18        0.90
  YS02001748           JUNCTION     1.05     1.61     8.68     0  02:40        1.34
  YS02001751           JUNCTION     1.23     1.54     8.42     0  03:17        1.54
  YS02001754           JUNCTION     1.48     1.82     8.43     0  03:18        1.82
  YS02001762           JUNCTION     1.68     2.02     8.42     0  03:16        2.02
  YS02001765           JUNCTION     1.63     1.97     8.42     0  03:15        1.96
  YS02001767           JUNCTION     1.59     1.93     8.42     0  03:19        1.92
  YS02001770           JUNCTION     1.59     1.91     8.41     0  03:15        1.90
  YS02001774           JUNCTION     1.66     1.97     8.40     0  03:17        1.97
  YS02001779           JUNCTION     1.41     1.68     8.37     0  02:46        1.68
  YS02001882           JUNCTION     0.38     1.62     8.33     0  02:53        1.60
  YS02001884           JUNCTION     0.48     1.71     8.33     0  03:00        1.70
  YS02001759           JUNCTION     1.71     2.07     8.43     0  03:18        2.06
  YS02001887           JUNCTION     0.56     1.79     8.33     0  02:53        1.78
  YS02001890           JUNCTION     0.59     1.81     8.31     0  02:53        1.80
  YS02001898           JUNCTION     0.36     1.55     8.29     0  02:59        1.55
  YS02001901           JUNCTION     0.48     1.67     8.28     0  02:53        1.66
  YS02001904           JUNCTION     0.45     1.63     8.26     0  02:52        1.63
  YS02001907           JUNCTION     0.79     1.96     8.25     0  02:52        1.96
  YS02001910           JUNCTION     0.57     1.78     8.28     0  02:54        1.77
  YS02001915           JUNCTION     0.37     1.58     8.30     0  02:54        1.57
  YS02001918           JUNCTION     0.19     1.25     8.31     0  02:53        1.25
  YS02001619           JUNCTION     1.19     1.47     8.40     0  03:00        1.47
  YS02001629           JUNCTION     1.54     1.85     8.39     0  02:46        1.84
  YS02001641           JUNCTION     1.64     1.93     8.37     0  02:46        1.93
  YS02001644           JUNCTION     1.65     1.92     8.35     0  02:46        1.92
  YS02001652           JUNCTION     1.49     1.99     8.58     0  02:50        1.91
  YS02001655           JUNCTION     1.26     1.88     8.73     0  02:50        1.71
  YS02001920           JUNCTION     0.28     1.32     8.33     0  02:53        1.31
  YS02001923           JUNCTION     0.15     1.07     8.33     0  02:53        1.07
  YS02001926           JUNCTION     0.21     0.90     8.35     0  02:53        0.90
  YS02001929           JUNCTION     0.11     0.67     8.36     0  02:53        0.63
  YS02001658           JUNCTION     0.99     1.96     9.10     0  02:35        1.44
  YS02001661           JUNCTION     0.76     1.72     9.13     0  02:50        1.14
  YS02001664           JUNCTION     0.31     0.57     8.49     0  02:48        0.55
  YS02001622           JUNCTION     1.21     1.50     8.40     0  02:46        1.50
  YS02001633           JUNCTION     1.63     1.94     8.40     0  02:46        1.94
  YS02001649           JUNCTION     1.69     2.05     8.44     0  02:49        2.05
  YS02001757           JUNCTION     1.81     2.17     8.43     0  03:13        2.16
  YS02001895           JUNCTION     0.35     1.56     8.30     0  02:53        1.55
  YS02001625           JUNCTION     1.49     1.78     8.38     0  02:45        1.78
  YS02163301           JUNCTION     1.57     1.88     8.40     0  02:55        1.88
  YS02163601           JUNCTION     1.68     1.99     8.39     0  02:46        1.99
  YS02164001           JUNCTION     1.62     1.92     8.38     0  02:46        1.91
  YS02001647           JUNCTION     1.48     1.80     8.41     0  02:50        1.79
  YSB1154              JUNCTION     0.24     0.45     9.51     0  03:01        0.45
  YSB6556              JUNCTION     0.14     0.34     9.51     0  03:01        0.34
  YSB1174              JUNCTION     0.20     0.40     9.51     0  03:01        0.40
  YSB1171              JUNCTION     0.40     0.60     9.51     0  03:01        0.60
  YS02006553           JUNCTION     0.79     1.96     8.25     0  02:58        1.96
  YS02006561           JUNCTION     0.22     1.08     7.74     0  02:52        1.08
  YS02006556           JUNCTION     0.76     1.92     8.23     0  03:01        1.91
  YS02006558           JUNCTION     0.80     1.96     8.22     0  03:00        1.95
  YS02001783           JUNCTION     0.41     1.47     7.61     0  03:00        1.47
  YS02001784           JUNCTION     0.45     1.42     7.48     0  03:00        1.41
  YS02001786           JUNCTION     0.42     1.26     7.29     0  03:06        1.26
  YS02001788           JUNCTION     0.39     1.13     7.11     0  02:53        1.13
  YS02001790           JUNCTION     0.52     1.30     6.94     0  02:53        1.29
  YS02001791           JUNCTION     0.55     1.28     6.75     0  03:05        1.27
  YS02001793           JUNCTION     0.82     1.80     6.64     0  03:02        1.80
  WS02004139           JUNCTION     0.59     0.65     5.56     0  03:12        0.65
  WSC                  OUTFALL      0.27     0.35     1.02     0  03:11        0.35
  3                    OUTFALL      0.03     0.20     6.20     0  08:30        0.20
  4                    OUTFALL      0.01     0.09     7.09     0  09:50        0.09
  5                    OUTFALL      0.00     0.00     5.00     0  00:00        0.00
  JK-storage           STORAGE      3.15     5.80     6.60     0  02:06        5.80
  CC-storage           STORAGE      1.08     1.41     8.41     0  03:16        1.41
  XR-storage           STORAGE      6.52     7.72     5.72     0  03:07        7.72
  
  
  *******************
  Node Inflow Summary
  *******************
  
  -------------------------------------------------------------------------------------------------
                                  Maximum  Maximum                  Lateral       Total        Flow
                                  Lateral    Total  Time of Max      Inflow      Inflow     Balance
                                   Inflow   Inflow   Occurrence      Volume      Volume       Error
  Node                 Type           LPS      LPS  days hr:min    10^6 ltr    10^6 ltr     Percent
  -------------------------------------------------------------------------------------------------
  WS02001211           JUNCTION      7.35   293.92     0  03:24       0.264        9.79       0.306
  WS02001212           JUNCTION      0.00   295.40     0  03:24           0        9.76       0.170
  WS02001213           JUNCTION      0.00   296.82     0  03:23           0        9.74       0.236
  WS02003069           JUNCTION      0.32   756.87     0  03:09      0.0115        14.7       0.209
  WS02003072           JUNCTION      0.00   756.82     0  03:10           0        14.6       0.255
  WS02003073           JUNCTION      1.82   758.62     0  03:10      0.0656        14.7       0.286
  WS02003060           JUNCTION     16.53   756.53     0  03:08       0.595        14.7       0.198
  WS02003066           JUNCTION      0.00   449.92     0  03:08           0        4.41       0.117
  WS02003059           JUNCTION      0.00   299.57     0  03:22           0        9.72       0.363
  WS02003067           JUNCTION      0.00   449.88     0  03:08           0        4.42       0.235
  WS02004401           JUNCTION      0.00   453.75     0  03:04           0        4.68       0.516
  WS02004402           JUNCTION      0.00   453.25     0  03:04           0        4.65       0.482
  WS02004403           JUNCTION      0.00   452.89     0  03:04           0        4.63       0.434
  WS02004404           JUNCTION      0.16   452.70     0  03:05     0.00583        4.62       0.320
  WS02004406           JUNCTION      0.00   452.59     0  03:05           0        4.58       0.782
  WS02004409           JUNCTION      0.00   452.50     0  03:06           0        4.54       0.431
  WS02004410           JUNCTION      0.00   451.75     0  03:06           0        4.52       0.482
  WS02004411           JUNCTION      0.00   451.10     0  03:06           0         4.5       0.489
  WS02004412           JUNCTION      0.00   450.52     0  03:07           0        4.47       0.519
  WS02004413           JUNCTION      0.00   450.11     0  03:07           0        4.45       0.760
  WS02004405           JUNCTION      0.04   452.67     0  03:05     0.00137         4.6       0.486
  WS02006109           JUNCTION      1.23   446.06     0  03:03      0.0443        4.75       0.455
  WS02006110           JUNCTION      0.00   446.07     0  03:02           0        4.73       0.476
  WS02006111           JUNCTION      0.00   458.85     0  03:03           0         4.7       0.113
  WS02006112           JUNCTION     14.47   457.61     0  03:03       0.063        4.75       0.621
  WS02006113           JUNCTION      0.00   446.19     0  03:03           0        4.71       0.239
  WS02006115           JUNCTION      0.00   455.69     0  03:03           0        4.72       0.530
  WS02006116           JUNCTION      0.00   454.76     0  03:04           0         4.7       0.457
  WS02006230           JUNCTION     10.28   396.01     0  08:22        0.37        2.78       0.391
  WS02006231           JUNCTION      0.00   387.49     0  08:22           0        2.43       0.686
  WS02006232           JUNCTION      0.00   387.70     0  08:22           0        2.44       0.651
  WS02006234           JUNCTION      0.00   389.39     0  08:21           0        2.45       0.450
  WS02006235           JUNCTION      0.00   389.69     0  08:21           0        2.48       0.430
  WS02006238           JUNCTION      0.00   313.71     0  09:51           0        1.93       0.458
  WS02006240           JUNCTION      0.00   318.97     0  09:40           0        1.94       0.769
  WS02006242           JUNCTION      0.00   324.86     0  09:41           0        1.96       0.903
  WS02006243           JUNCTION      0.00   331.70     0  08:41           0        1.96       0.249
  WS02006245           JUNCTION      0.00   338.46     0  08:41           0        1.97       0.610
  WS02006247           JUNCTION      0.00   344.50     0  08:40           0        1.98       0.464
  WS02006248           JUNCTION      0.00   349.97     0  08:40           0        1.99       0.330
  WS02006249           JUNCTION      0.00   400.34     0  09:50           0        2.09       0.555
  WS02006239           JUNCTION      0.00   313.74     0  09:44           0        1.94       0.715
  WS02006251           JUNCTION      0.08   400.64     0  09:41     0.00277        2.12       0.475
  WS02006252           JUNCTION      0.00   400.00     0  09:40           0        1.74       0.025
  WS02006253           JUNCTION      1.91    80.98     0  03:01     0.00814       0.386       1.391
  WS02006256           JUNCTION      0.00   600.00     0  08:30           0        1.11       0.218
  WS02004138           JUNCTION      0.00   285.00     0  09:10           0        9.55       0.049
  WS02004407           JUNCTION      0.00   452.54     0  03:05           0        4.55       0.191
  WS02006228           JUNCTION      0.00   444.83     0  03:03           0        4.72       0.345
  WS02006229           JUNCTION      0.00   444.75     0  03:02           0        4.74       0.296
  WS02006280           JUNCTION      0.00   375.57     0  03:02           0        1.97       0.003
  WS02006284           JUNCTION      0.10   375.56     0  03:02     0.00344        1.97       0.060
  WS02006287           JUNCTION      0.00   375.28     0  03:01           0        1.97       0.035
  WSF200               JUNCTION      0.00   449.91     0  03:08           0         4.4       0.123
  HS02004901           JUNCTION     17.47    17.47     0  03:01      0.0758       0.076       2.336
  HS02004881           JUNCTION      7.55    79.19     0  03:01      0.0331       0.359       0.016
  HS02004876           JUNCTION     14.15    72.10     0  03:01      0.0638       0.327       0.144
  HS02004870           JUNCTION     14.17    58.27     0  03:01      0.0627       0.263       0.035
  HS02004862           JUNCTION     13.95    44.46     0  03:01      0.0703         0.2       0.076
  HS02004856           JUNCTION     10.64    30.80     0  03:01      0.0472       0.131       1.095
  HS02004852           JUNCTION      0.00    20.44     0  03:01           0      0.0843       0.042
  HS02004848           JUNCTION     32.07    32.07     0  03:01       0.152       0.152       0.018
  HS02004842           JUNCTION      0.00    11.42     0  03:01           0      0.0807      19.200
  HS02004837           JUNCTION     30.75    41.91     0  03:01       0.338       0.406       0.199
  HS02004830           JUNCTION      0.15    41.84     0  03:01      0.0054       0.397       0.310
  HS02004824           JUNCTION     40.25    81.79     0  03:01         0.2       0.596       0.089
  HS02004817           JUNCTION      0.60    82.19     0  03:01      0.0216       0.617       2.774
  HS02004807           JUNCTION     26.15   107.24     0  03:01       0.115       0.715       0.597
  HS02004802           JUNCTION      0.00   106.49     0  03:01           0       0.712       0.563
  HS02004799           JUNCTION     21.02   227.52     0  03:01      0.0934        1.08       0.227
  HS02004792           JUNCTION     88.55   207.32     0  03:01       0.399       0.984       0.040
  HS02004788           JUNCTION     30.78   119.38     0  03:01        0.19       0.587       0.064
  HS02004785           JUNCTION      0.15    89.79     0  03:01      0.0054       0.398       0.106
  HS02004777           JUNCTION      0.03    90.24     0  03:01     0.00108       0.398       1.306
  HS02004770           JUNCTION     73.89    90.93     0  03:01       0.324       0.399       0.771
  HS02004480           JUNCTION      0.00   269.28     0  03:01           0        1.27       0.095
  HS02004479           JUNCTION      0.00    42.82     0  03:02           0       0.204       0.352
  HS02004478           JUNCTION      0.00   375.18     0  03:01           0        1.97       0.016
  YS02001745           JUNCTION    297.18   359.40     0  02:38         2.5        2.51       0.286
  YS02001748           JUNCTION      0.04   537.82     0  02:38     0.00162        2.51       0.771
  YS02001751           JUNCTION      0.01   307.68     0  03:01    0.000396        2.48       0.962
  YS02001754           JUNCTION      0.26   307.11     0  03:01     0.00936        2.46       1.026
  YS02001762           JUNCTION      0.00   306.29     0  02:49           0        1.83       1.175
  YS02001765           JUNCTION      0.00   306.05     0  02:49           0        1.83       1.350
  YS02001767           JUNCTION      0.54   306.47     0  02:49      0.0193        1.85       1.958
  YS02001770           JUNCTION    373.02   486.65     0  03:19        2.77        3.24       0.975
  YS02001774           JUNCTION      0.00   488.67     0  03:20           0        1.84       1.390
  YS02001779           JUNCTION      0.01   487.92     0  03:19     0.00018        1.81       0.849
  YS02001882           JUNCTION      0.00    13.14     0  02:45           0      0.0144      12.080
  YS02001884           JUNCTION      0.00    23.11     0  02:44           0      0.0501      10.638
  YS02001759           JUNCTION    359.84   600.17     0  02:49        2.54        3.87       0.595
  YS02001887           JUNCTION    453.35   453.52     0  03:01         2.9        2.93       0.239
  YS02001890           JUNCTION      0.00   453.78     0  03:01           0        2.89       0.265
  YS02001898           JUNCTION      0.00   453.97     0  03:01           0        2.88       0.068
  YS02001901           JUNCTION      0.00   454.54     0  03:01           0        2.88       0.193
  YS02001904           JUNCTION      0.00   454.26     0  03:01           0        2.88       0.170
  YS02001907           JUNCTION      0.00   859.81     0  02:58           0        6.56       0.329
  YS02001910           JUNCTION      0.00   431.95     0  02:54           0        3.69       0.270
  YS02001915           JUNCTION    263.65   431.97     0  02:54        2.08        3.71       0.120
  YS02001918           JUNCTION      0.00   197.83     0  02:54           0        1.63       0.089
  YS02001619           JUNCTION    257.27   257.27     0  03:01        2.07        2.07       0.586
  YS02001629           JUNCTION      0.00   196.26     0  02:45           0        1.74       1.662
  YS02001641           JUNCTION      0.00   412.56     0  02:45           0        4.13       0.518
  YS02001644           JUNCTION    282.70  1206.84     0  03:16        2.41        11.1       0.230
  YS02001652           JUNCTION      0.00   364.42     0  03:00           0        2.13       1.121
  YS02001655           JUNCTION      0.15   363.65     0  03:00     0.00554        2.16       1.158
  YS02001920           JUNCTION      2.87   197.58     0  02:54       0.103        1.62       0.141
  YS02001923           JUNCTION      0.04   207.02     0  02:54     0.00136        1.51       0.035
  YS02001926           JUNCTION      0.05   155.77     0  02:53     0.00188        1.51       0.162
  YS02001929           JUNCTION    129.40   129.40     0  03:01        1.51        1.51       0.027
  YS02001658           JUNCTION      0.00   621.44     0  02:34           0        2.18       0.879
  YS02001661           JUNCTION      0.00   656.15     0  02:48           0        2.21      -0.323
  YS02001664           JUNCTION    327.80   351.91     0  02:48        2.17         2.2       0.074
  YS02001622           JUNCTION      0.00   257.76     0  03:01           0        2.06       1.566
  YS02001633           JUNCTION    287.40   412.29     0  02:45        2.49        4.19       0.770
  YS02001649           JUNCTION      0.00   862.66     0  02:46           0        6.87       0.543
  YS02001757           JUNCTION      0.00  1650.73     0  02:47           0        8.18       1.133
  YS02001895           JUNCTION      0.00   453.87     0  03:01           0        2.88       0.126
  YS02001625           JUNCTION      0.00   257.58     0  03:01           0        2.03       1.942
  YS02163301           JUNCTION      0.00   198.38     0  02:45           0        1.72       1.421
  YS02163601           JUNCTION      0.11   412.37     0  02:45     0.00396        4.15       0.729
  YS02164001           JUNCTION      0.00   413.13     0  02:45           0        4.13       0.488
  YS02001647           JUNCTION      0.00   622.00     0  02:45           0        6.14       0.461
  YSB1154              JUNCTION     25.19    25.19     0  03:01       0.114       0.114       1.270
  YSB6556              JUNCTION      0.00    24.92     0  03:01           0       0.115       1.079
  YSB1174              JUNCTION     19.06    19.06     0  03:01      0.0821      0.0828       1.562
  YSB1171              JUNCTION      0.00    43.19     0  03:01           0       0.203       3.194
  YS02006553           JUNCTION      0.00   667.44     0  03:17           0        6.33       0.222
  YS02006561           JUNCTION      0.00   964.66     0  03:00           0        8.97      -0.001
  YS02006556           JUNCTION      0.00   667.24     0  03:17           0        6.34       0.154
  YS02006558           JUNCTION    392.87   965.07     0  03:00        2.68           9       0.055
  YS02001783           JUNCTION      0.00   964.52     0  02:59           0        8.97       0.015
  YS02001784           JUNCTION      1.06   965.75     0  03:00      0.0382        9.01       0.027
  YS02001786           JUNCTION      0.06   965.49     0  03:00     0.00203        9.01       0.026
  YS02001788           JUNCTION      0.07   965.73     0  03:00     0.00256        9.01       0.014
  YS02001790           JUNCTION      0.15   965.81     0  02:59     0.00558        9.01       0.015
  YS02001791           JUNCTION      0.00   965.77     0  03:00           0        9.01       0.005
  YS02001793           JUNCTION      0.00   966.15     0  02:59           0        9.01      -0.006
  WS02004139           JUNCTION      0.32   291.91     0  00:00      0.0116        9.55       0.350
  WSC                  OUTFALL       0.00   758.59     0  03:11           0        14.6       0.000
  3                    OUTFALL       0.00   482.88     0  08:30           0       0.544       0.000
  4                    OUTFALL       0.00    86.57     0  09:50           0       0.095       0.000
  5                    OUTFALL       0.00     0.00     0  00:00           0           0       0.000 ltr
  JK-storage           STORAGE       0.00   966.48     0  03:00           0        9.16      -2.335
  CC-storage           STORAGE       0.00  1650.53     0  02:47           0        4.82       1.174
  XR-storage           STORAGE     690.11   690.11     0  03:01        11.4          12      -0.005
  
  
  **********************
  Node Surcharge Summary
  **********************
  
  Surcharging occurs when water rises above the top of the highest conduit.
  ---------------------------------------------------------------------
                                               Max. Height   Min. Depth
                                   Hours       Above Crown    Below Rim
  Node                 Type      Surcharged         Meters       Meters
  ---------------------------------------------------------------------
  WS02006109           JUNCTION        0.57          0.049        1.771
  WS02006232           JUNCTION        0.56          0.031        1.449
  WS02006235           JUNCTION        0.08          0.008        1.282
  WS02006238           JUNCTION        0.32          0.026        1.404
  WS02006242           JUNCTION        0.21          0.016        0.804
  WS02006252           JUNCTION        0.80          0.185        0.915
  WS02006228           JUNCTION        0.48          0.055        2.145
  YS02001748           JUNCTION        6.87          0.526        0.664
  YS02001751           JUNCTION        7.46          0.545        0.655
  YS02001754           JUNCTION        7.65          0.772        0.378
  YS02001762           JUNCTION        7.80          1.024        0.126
  YS02001765           JUNCTION        7.78          0.972        0.128
  YS02001767           JUNCTION        7.76          0.930        0.100
  YS02001770           JUNCTION        7.74          0.882        0.038
  YS02001774           JUNCTION        7.80          0.974        0.076
  YS02001779           JUNCTION        7.63          0.680        0.000
  YS02001882           JUNCTION        0.81          0.616        0.214
  YS02001884           JUNCTION        0.84          0.649        0.221
  YS02001759           JUNCTION        7.83          1.069        0.141
  YS02001887           JUNCTION        0.93          0.740        0.210
  YS02001890           JUNCTION        0.97          0.758        0.002
  YS02001898           JUNCTION        0.76          0.522        0.218
  YS02001901           JUNCTION        0.90          0.671        0.199
  YS02001904           JUNCTION        0.87          0.633        0.217
  YS02001907           JUNCTION        1.52          0.950        0.000
  YS02001910           JUNCTION        1.02          0.776        0.324
  YS02001915           JUNCTION        0.79          0.582        0.418
  YS02001918           JUNCTION        0.54          0.248        0.562
  YS02001619           JUNCTION        7.46          0.473        0.137
  YS02001629           JUNCTION        7.46          0.466        0.004
  YS02001641           JUNCTION        7.79          0.935        0.165
  YS02001644           JUNCTION        7.79          0.920        0.000
  YS02001652           JUNCTION        7.69          0.959        0.171
  YS02001655           JUNCTION        7.47          0.880        0.320
  YS02001920           JUNCTION        0.57          0.321        0.819
  YS02001658           JUNCTION        6.96          0.955        0.345
  YS02001661           JUNCTION        0.08          0.654        0.736
  YS02001622           JUNCTION        7.48          0.498        0.122
  YS02001633           JUNCTION        7.77          0.925        0.135
  YS02001649           JUNCTION        7.81          1.050        0.000
  YS02001757           JUNCTION        7.91          1.173        0.037
  YS02001895           JUNCTION        0.78          0.558        0.192
  YS02001625           JUNCTION        7.71          0.780        0.000
  YS02163301           JUNCTION        7.75          0.880        0.150
  YS02163601           JUNCTION        7.81          0.989        0.091
  YS02164001           JUNCTION        7.78          0.920        0.180
  YS02001647           JUNCTION        7.70          0.800        0.100
  YS02006553           JUNCTION        1.60          0.964        0.226
  YS02006561           JUNCTION        0.67          0.280        0.870
  YS02006556           JUNCTION        1.24          0.879        0.471
  YS02006558           JUNCTION        1.20          0.857        0.543
  YS02001783           JUNCTION        1.47          0.670        0.930
  YS02001784           JUNCTION        1.51          0.616        0.874
  YS02001786           JUNCTION        1.48          0.462        0.968
  YS02001788           JUNCTION        1.46          0.334        1.146
  YS02001790           JUNCTION        6.05          0.498        0.659
  YS02001791           JUNCTION        6.10          0.478        1.442
  YS02001793           JUNCTION        6.22          0.804        1.796
  
  
  *********************
  Node Flooding Summary
  *********************
  
  Flooding refers to all water that overflows a node, whether it ponds or not.
  --------------------------------------------------------------------------
                                                             Total   Maximum
                                 Maximum   Time of Max       Flood    Ponded
                        Hours       Rate    Occurrence      Volume     Depth
  Node                 Flooded       LPS   days hr:min    10^6 ltr    Meters
  --------------------------------------------------------------------------
  YS02001779              2.48    487.67      0  03:19       1.790     0.000
  YS02001907              0.38    275.32      0  02:58       0.212     0.000
  YS02001644              5.42   1206.44      0  03:16       9.574     0.000
  YS02001649              0.01     19.77      0  02:50       0.000     0.000
  YS02001625              0.88    169.17      0  03:01       0.251     0.000
  JK-storage              5.94    966.14      0  03:00       8.267     0.000
  XR-storage              4.07    363.06      0  03:07       1.575     0.000
  
  
  **********************
  Storage Volume Summary
  **********************
  
  --------------------------------------------------------------------------------------------------
                         Average     Avg  Evap Exfil       Maximum     Max    Time of Max    Maximum
                          Volume    Pcnt  Pcnt  Pcnt        Volume    Pcnt     Occurrence    Outflow
  Storage Unit           1000 m3    Full  Loss  Loss       1000 m3    Full    days hr:min        LPS
  --------------------------------------------------------------------------------------------------
  JK-storage               0.158      54     0     0         0.291     100       0  02:06     600.00
  CC-storage               3.003      19     0     0         3.937      25       0  03:16     400.00
  XR-storage               0.783      84     0     0         0.926     100       0  03:07     285.00
  
  
  ***********************
  Outfall Loading Summary
  ***********************
  
  -----------------------------------------------------------
                         Flow       Avg       Max       Total
                         Freq      Flow      Flow      Volume
  Outfall Node           Pcnt       LPS       LPS    10^6 ltr
  -----------------------------------------------------------
  WSC                  100.00    456.24    758.59      14.612
  3                     35.80    123.81    482.88       0.544
  4                     17.25     34.41     86.57       0.095
  5                      0.00      0.00      0.00       0.000
  -----------------------------------------------------------
  System                38.26    614.46    967.17      15.251
  
  
  ********************
  Link Flow Summary
  ********************
  
  -----------------------------------------------------------------------------
                                 Maximum  Time of Max   Maximum    Max/    Max/
                                  |Flow|   Occurrence   |Veloc|    Full    Full
  Link                 Type          LPS  days hr:min     m/sec    Flow   Depth
  -----------------------------------------------------------------------------
  WS02003066WSF200     CONDUIT    449.91     0  03:08      2.64    0.08    0.21
  WS02006287WS02006284 CONDUIT    375.46     0  03:02      1.98    0.17    0.29
  WS02006284WS02006280 CONDUIT    375.57     0  03:02      2.22    0.16    0.27
  WS02006280WS02006229 CONDUIT    375.60     0  03:02      3.58    0.08    0.19
  WS02006229WS02006228 CONDUIT    444.83     0  03:03      0.88    1.47    1.00
  WS02006256WS02006235 CONDUIT    148.70     0  08:05      2.11    1.57    1.00
  WS02006253WS02006251 CONDUIT     80.93     0  03:01      0.62    0.24    0.89
  WS02006252WS02006251 CONDUIT    400.10     0  09:40      3.18    1.47    1.00
  WS02006251WS02006249 CONDUIT    400.34     0  09:50      1.16    1.15    0.86
  WS02006249WS02006248 CONDUIT    349.97     0  08:40      1.15    1.92    0.82
  WS02006248WS02006247 CONDUIT    344.50     0  08:40      1.11    0.75    0.85
  WS02006247WS02006245 CONDUIT    338.46     0  08:41      1.06    2.68    0.88
  WS02006245WS02006243 CONDUIT    331.70     0  08:41      1.06    0.98    0.89
  WS02006243WS02006242 CONDUIT    324.86     0  09:41      0.93    0.69    0.96
  WS02006242WS02006240 CONDUIT    318.97     0  09:40      0.86    1.27    0.97
  WS02006240WS02006239 CONDUIT    313.74     0  09:44      0.88    0.99    0.97
  WS02006239WS02006238 CONDUIT    313.71     0  09:51      0.82    1.00    1.00
  WS02006238WS02006235 CONDUIT    313.72     0  09:51      0.82    0.70    1.00
  WS02006235WS02006234 CONDUIT    389.39     0  08:21      1.03    4.11    0.97
  WS02006234WS02006232 CONDUIT    387.70     0  08:22      1.01    0.78    0.98
  WS02006232WS02006231 CONDUIT    387.49     0  08:22      1.06    0.81    0.91
  WS02006231WS02006230 CONDUIT    385.73     0  08:22      1.35    5.85    0.74
  WS02006230WS02006229 CONDUIT    394.61     0  08:23      1.03    8.78    1.00
  WS02006228WS02006109 CONDUIT    444.83     0  03:03      0.88    1.94    1.00
  WS02006116WS02004401 CONDUIT    453.75     0  03:04      0.70    0.63    0.77
  WS02006115WS02006116 CONDUIT    454.76     0  03:04      0.79    0.58    0.69
  WS02006113WS02006111 CONDUIT    458.85     0  03:03      2.30    0.55    0.42
  WS02006112WS02006115 CONDUIT    455.69     0  03:03      0.66    0.27    0.82
  WS02006111WS02006112 CONDUIT    447.51     0  03:04      1.28    0.21    0.66
  WS02006110WS02006113 CONDUIT    446.19     0  03:03      1.10    0.41    0.76
  WS02006109WS02006110 CONDUIT    446.07     0  03:02      0.90    0.86    0.96
  WS02004411WS02004412 CONDUIT    450.52     0  03:07      0.86    0.64    0.64
  WS02004401WS02004402 CONDUIT    453.25     0  03:04      0.67    0.54    0.80
  WS02004413WS02003067 CONDUIT    449.88     0  03:08      1.01    0.19    0.55
  WS02004412WS02004413 CONDUIT    450.11     0  03:07      0.82    0.30    0.73
  WS02004410WS02004411 CONDUIT    451.10     0  03:06      0.87    0.62    0.63
  WS02004409WS02004410 CONDUIT    451.75     0  03:06      0.90    0.58    0.61
  WS02004407WS02004409 CONDUIT    452.50     0  03:06      1.37    0.16    0.44
  WS02004406WS02004407 CONDUIT    452.54     0  03:05      0.94    0.20    0.59
  WS02004405WS02004406 CONDUIT    452.59     0  03:05      0.61    0.89    0.90
  WS02004404WS02004405 CONDUIT    452.63     0  03:05      0.61    4.43    0.90
  WS02004403WS02004404 CONDUIT    452.54     0  03:05      0.62    0.33    0.87
  WS02004402WS02004403 CONDUIT    452.89     0  03:04      0.66    0.65    0.82
  WS02004139WS02001211 CONDUIT    286.57     0  03:24      0.81    0.36    0.53
  WS02004138WS02004139 CONDUIT    291.59     0  00:00      3.34    0.06    0.39
  WS02003067WS02003066 CONDUIT    449.92     0  03:08      1.09    0.14    0.39
  WS02001213WS02003059 CONDUIT    299.57     0  03:22      0.78    0.49    0.70
  WS02001212WS02001213 CONDUIT    296.82     0  03:23      1.19    0.46    0.40
  WS02001211WS02001212 CONDUIT    295.40     0  03:24      0.67    0.23    0.57
  WS02003072WS02003073 CONDUIT    756.80     0  03:10      1.60    1.63    0.44
  WS02003069WS02003072 CONDUIT    756.82     0  03:10      1.51    0.36    0.45
  WS02003060WS02003069 CONDUIT    756.55     0  03:09      1.77    0.30    0.40
  WS02003059WS02003060 CONDUIT    303.40     0  03:22      0.82    0.20    0.60
  HS02004901HS02004770 CONDUIT     17.70     0  03:01      0.07    0.07    0.39
  HS02004876HS02004881 CONDUIT     71.90     0  03:01      0.92    0.76    0.11
  HS02004870HS02004876 CONDUIT     58.04     0  03:01      0.63    0.04    0.13
  HS02004842HS02004848 CONDUIT     11.42     0  03:01      0.05    0.01    0.30
  HS02004837HS02004842 CONDUIT     11.95     0  03:02      0.42    0.01    0.32
  HS02004830HS02004837 CONDUIT     41.69     0  03:01      0.56    0.04    0.11
  HS02004824HS02004830 CONDUIT     41.67     0  03:01      0.58    0.05    0.10
  HS02004817HS02004824 CONDUIT     81.59     0  03:01      0.25    0.04    0.47
  HS02004770HS02004777 CONDUIT     90.21     0  03:01      0.32    0.16    0.41
  HS02004799HS02004480 CONDUIT    226.98     0  03:01      0.78    0.29    0.42
  HS02004792HS02004799 CONDUIT    206.61     0  03:01      0.88    0.13    0.33
  HS02004788HS02004792 CONDUIT    118.95     0  03:01      1.01    0.08    0.17
  HS02004785HS02004788 CONDUIT     89.52     0  03:02      0.66    0.67    0.19
  HS02004777HS02004785 CONDUIT     89.64     0  03:01      0.38    0.11    0.33
  HS02004480HS02004478 CONDUIT    269.13     0  03:01      1.20    1.13    0.32
  HS02004479HS02004480 CONDUIT     44.17     0  03:02      0.23    0.04    0.40
  HS02004862HS02004870 CONDUIT     44.23     0  03:01      0.64    0.05    0.10
  HS02004848HS02004852 CONDUIT     20.44     0  03:01      0.44    0.02    0.07
  HS02004856HS02004862 CONDUIT     30.57     0  03:01      0.47    0.03    0.09
  HS02004852HS02004856 CONDUIT     20.26     0  03:01      0.24    0.02    0.12
  HS02004802HS02004478 CONDUIT    106.59     0  03:02      0.45    0.09    0.35
  HS02004478WS02006287 CONDUIT    375.28     0  03:01      1.68    0.11    0.25
  HS02004817HS02004807 CONDUIT     82.19     0  03:01      0.19    0.05    0.62
  HS02004807HS02004802 CONDUIT    106.49     0  03:01      0.38    0.20    0.40
  YS02001759YS02001757 CONDUIT    600.05     0  02:49      0.76    0.43    1.00
  YS02001762YS02001759 CONDUIT    306.31     0  02:49      0.39    0.35    1.00
  YS02001765YS02001762 CONDUIT    306.29     0  02:49      0.39    0.29    1.00
  YS02001770YS02001767 CONDUIT    305.94     0  02:49      0.39    1.21    1.00
  YS02001774YS02001770 CONDUIT    488.67     0  03:20      0.62    0.31    1.00
  YS02001779YS02001774 CONDUIT    487.92     0  03:19      0.62    0.25    1.00
  YS02001649YS02001757 CONDUIT    862.72     0  02:46      1.10    0.52    1.00
  YS02001767YS02001765 CONDUIT    306.05     0  02:49      0.39    0.38    1.00
  YS02006561YS02001783 CONDUIT    964.52     0  02:59      1.92    0.50    1.00
  YS02001783YS02001784 CONDUIT    964.69     0  03:00      1.92    1.33    1.00
  YS02001784YS02001785 CONDUIT    965.44     0  03:00      1.92    2.25    1.00
  YS02001788YS02001790 CONDUIT    965.66     0  02:59      1.92    0.71    1.00
  YS02001790YS02001791 CONDUIT    965.77     0  03:00      2.00    1.05    1.00
  YS02001791YS02001793 CONDUIT    966.15     0  02:59      3.54    0.41    1.00
  YS02001910YS02001907 CONDUIT    432.07     0  02:54      0.55    0.24    1.00
  YS02001786YS02001788 CONDUIT    965.66     0  03:00      1.92    1.86    1.00
  YS02001915YS02001910 CONDUIT    431.95     0  02:54      0.55    0.21    1.00
  YS02001918YS02001915 CONDUIT    198.58     0  02:54      0.44    0.11    1.00
  YS02001923YS02001920 CONDUIT    194.71     0  02:54      0.68    0.09    1.00
  YS02001926YS02001923 CONDUIT    206.98     0  02:54      0.78    0.30    0.88
  YS02001929YS02001926 CONDUIT    155.72     0  02:53      0.84    0.07    0.78
  YS02001920YS02001918 CONDUIT    197.83     0  02:54      0.67    0.19    1.00
  YS02001629YS02163301 CONDUIT    198.38     0  02:45      0.25    0.24    1.00
  YS02001619YS02001622 CONDUIT    257.76     0  03:01      0.61    0.38    1.00
  YS02001622YS02001625 CONDUIT    257.58     0  03:01      0.33    0.14    1.00
  YS02001625YS02001629 CONDUIT    196.26     0  02:45      0.25    0.09    1.00
  YS02163301YS02001633 CONDUIT    199.63     0  02:45      0.25    0.19    1.00
  YS02163601YS02164001 CONDUIT    413.13     0  02:45      0.53    0.37    1.00
  YS02164001YS02001641 CONDUIT    412.56     0  02:45      0.53    0.56    1.00
  YS02001641YS02001644 CONDUIT    412.51     0  02:45      0.53    1.33    1.00
  YS02001647YS02001649 CONDUIT    621.66     0  02:45      0.79    0.33    1.00
  YS02006553YS02006556 CONDUIT    667.24     0  03:17      0.85    0.57    1.00
  YS02006556YS02006558 CONDUIT    668.30     0  03:17      0.85    0.53    1.00
  YSB6556YSB1171       CONDUIT     24.82     0  03:03      0.09    0.03    0.67
  YS02001907YS02006553 CONDUIT    667.44     0  03:17      0.74    0.79    1.00
  YS02006558YS02006561 CONDUIT    964.66     0  03:00      3.41    2.13    1.00
  YS02001633YS02163601 CONDUIT    412.26     0  02:45      0.52    0.43    1.00
  YS02001644YS02001647 CONDUIT    622.00     0  02:45      0.79    0.37    1.00
  YS02001745YS02001748 CONDUIT    537.78     0  02:38      1.48    0.21    0.95
  YS02001748YS02001751 CONDUIT    307.67     0  03:01      1.05    0.16    1.00
  YS02001751YS02001754 CONDUIT    306.85     0  03:01      0.88    0.15    1.00
  YS02001754YS02001757 CONDUIT    306.49     0  03:01      0.39    0.12    1.00
  YS02001882YS02001884 CONDUIT     13.14     0  02:45      0.09    0.02    1.00
  YS02001884YS02001887 CONDUIT     23.11     0  02:44      0.05    0.03    1.00
  YS02001890YS02001895 CONDUIT    453.87     0  03:01      0.58    0.21    1.00
  YS02001895YS02001898 CONDUIT    453.97     0  03:01      0.58    0.79    1.00
  YS02001898YS02001901 CONDUIT    454.54     0  03:01      0.58    0.29    1.00
  YS02001901YS02001904 CONDUIT    454.26     0  03:01      0.58    0.70    1.00
  YS02001904YS02001907 CONDUIT    454.37     0  03:01      0.58    0.16    1.00
  YS02001887YS02001890 CONDUIT    453.78     0  03:01      0.58    0.78    1.00
  YS02001652YS02001649 CONDUIT    366.42     0  03:00      0.50    0.18    1.00
  YS02001655YS02001652 CONDUIT    364.42     0  03:00      0.93    0.18    1.00
  YS02001658YS02001655 CONDUIT    363.50     0  03:00      1.21    0.15    1.00
  YS02001661YS02001658 CONDUIT    621.44     0  02:34      1.56    0.24    1.00
  YS02001664YS02001661 CONDUIT    656.15     0  02:48      1.45    0.21    0.74
  YSB1154YSB6556       CONDUIT     24.92     0  03:01      0.18    0.04    0.56
  YSB1174YSB1171       CONDUIT     18.78     0  03:01      0.07    0.03    0.68
  YSB1171HS02004479    CONDUIT     42.82     0  03:02      0.54    0.03    0.53
  HS02004881HS02006253 CONDUIT     79.16     0  03:01      2.19    0.02    0.21
  YS02001793JiankangQianchi CONDUIT    966.48     0  03:00      8.84    0.08    1.00
  YS02001757CaochengTiaoxuchi CONDUIT   1650.53     0  02:47      2.13    0.72    1.00
  WSF200WS02003060     CONDUIT    449.99     0  03:08      1.67    0.10    0.30
  1                    CONDUIT    758.59     0  03:11      3.09    0.26    0.35
  2                    CONDUIT     86.57     0  09:50      4.65    0.21    0.31
  3                    CONDUIT    482.88     0  08:30      9.73    0.77    0.66
  4                    CONDUIT      0.00     0  00:00      0.00    0.00    0.00
  CC-Pump-1            PUMP       200.00     0  08:10              1.00
  CC-Pump-2            PUMP       200.00     0  09:00              1.00
  JK-Pump-1            PUMP       300.00     0  08:30              1.00
  JK-Pump-2            PUMP       300.00     0  08:20              1.00
  XR-Pump-1            PUMP        95.00     0  08:40              1.00
  XR-Pump-2            PUMP        95.00     0  00:00              1.00
  XR-Pump-3            PUMP        95.00     0  00:00              1.00
  XR-Pump-4            PUMP        95.00     0  00:00              1.00
  
  
  ***************************
  Flow Classification Summary
  ***************************
  
  -------------------------------------------------------------------------------------
                      Adjusted    ---------- Fraction of Time in Flow Class ---------- 
                       /Actual         Up    Down  Sub   Sup   Up    Down  Norm  Inlet 
  Conduit               Length    Dry  Dry   Dry   Crit  Crit  Crit  Crit  Ltd   Ctrl  
  -------------------------------------------------------------------------------------
  WS02003066WSF200        1.00   0.09  0.00  0.00  0.00  0.91  0.00  0.00  0.79  0.00
  WS02006287WS02006284    1.00   0.03  0.02  0.00  0.71  0.24  0.00  0.00  0.73  0.00
  WS02006284WS02006280    1.00   0.04  0.00  0.00  0.00  0.00  0.00  0.96  0.00  0.00
  WS02006280WS02006229    1.00   0.04  0.00  0.00  0.00  0.00  0.00  0.96  0.00  0.00
  WS02006229WS02006228    1.00   0.00  0.00  0.00  1.00  0.00  0.00  0.00  0.00  0.00
  WS02006256WS02006235    1.00   0.06  0.00  0.00  0.94  0.00  0.00  0.00  0.01  0.00
  WS02006253WS02006251    1.00   0.01  0.02  0.00  0.96  0.00  0.00  0.00  0.00  0.00
  WS02006252WS02006251    1.00   0.48  0.00  0.00  0.00  0.00  0.52  0.00  0.00  0.00
  WS02006251WS02006249    1.00   0.00  0.00  0.00  1.00  0.00  0.00  0.00  0.66  0.00
  WS02006249WS02006248    1.00   0.00  0.01  0.00  0.64  0.00  0.36  0.00  0.00  0.00
  WS02006248WS02006247    1.00   0.01  0.00  0.00  0.98  0.00  0.00  0.02  0.59  0.00
  WS02006247WS02006245    1.00   0.01  0.00  0.00  0.96  0.00  0.00  0.04  0.00  0.00
  WS02006245WS02006243    1.00   0.01  0.00  0.00  0.88  0.00  0.00  0.11  0.00  0.00
  WS02006243WS02006242    1.00   0.01  0.00  0.00  0.95  0.00  0.00  0.04  0.62  0.00
  WS02006242WS02006240    1.00   0.01  0.04  0.00  0.95  0.00  0.00  0.00  0.00  0.00
  WS02006240WS02006239    1.00   0.05  0.00  0.00  0.71  0.00  0.00  0.25  0.00  0.00
  WS02006239WS02006238    1.00   0.05  0.00  0.00  0.94  0.00  0.00  0.01  0.34  0.00
  WS02006238WS02006235    1.00   0.05  0.01  0.00  0.94  0.00  0.00  0.00  0.00  0.00
  WS02006235WS02006234    1.00   0.06  0.00  0.00  0.75  0.00  0.18  0.00  0.00  0.00
  WS02006234WS02006232    1.00   0.06  0.00  0.00  0.94  0.00  0.00  0.00  0.28  0.00
  WS02006232WS02006231    1.00   0.06  0.01  0.00  0.92  0.00  0.00  0.00  0.01  0.00
  WS02006231WS02006230    1.00   0.07  0.00  0.00  0.40  0.00  0.53  0.00  0.00  0.00
  WS02006230WS02006229    1.00   0.00  0.00  0.00  0.99  0.00  0.00  0.01  0.00  0.00
  WS02006228WS02006109    1.00   0.00  0.00  0.00  1.00  0.00  0.00  0.00  0.00  0.00
  WS02006116WS02004401    1.00   0.03  0.00  0.00  0.97  0.00  0.00  0.00  0.00  0.00
  WS02006115WS02006116    1.00   0.03  0.00  0.00  0.94  0.00  0.00  0.03  0.00  0.00
  WS02006113WS02006111    1.00   0.02  0.00  0.00  0.01  0.97  0.00  0.00  0.09  0.00
  WS02006112WS02006115    1.00   0.02  0.01  0.00  0.97  0.00  0.00  0.00  0.00  0.00
  WS02006111WS02006112    1.00   0.02  0.00  0.00  0.98  0.00  0.00  0.00  0.94  0.00
  WS02006110WS02006113    1.00   0.00  0.01  0.00  0.98  0.00  0.00  0.00  0.00  0.00
  WS02006109WS02006110    1.00   0.00  0.00  0.00  0.99  0.00  0.00  0.00  0.00  0.00
  WS02004411WS02004412    1.00   0.07  0.00  0.00  0.93  0.00  0.00  0.00  0.00  0.00
  WS02004401WS02004402    1.00   0.03  0.00  0.00  0.97  0.00  0.00  0.00  0.03  0.00
  WS02004413WS02003067    1.00   0.08  0.01  0.00  0.00  0.00  0.91  0.00  0.00  0.00
  WS02004412WS02004413    1.00   0.07  0.00  0.00  0.92  0.00  0.00  0.00  0.00  0.00
  WS02004410WS02004411    1.00   0.07  0.00  0.00  0.93  0.00  0.00  0.00  0.00  0.00
  WS02004409WS02004410    1.00   0.07  0.00  0.00  0.93  0.00  0.00  0.00  0.00  0.00
  WS02004407WS02004409    1.00   0.07  0.00  0.00  0.92  0.01  0.00  0.00  0.82  0.00
  WS02004406WS02004407    1.00   0.00  0.07  0.00  0.93  0.00  0.00  0.00  0.00  0.00
  WS02004405WS02004406    1.00   0.00  0.00  0.00  1.00  0.00  0.00  0.00  0.03  0.00
  WS02004404WS02004405    1.00   0.00  0.00  0.00  1.00  0.00  0.00  0.00  0.00  0.00
  WS02004403WS02004404    1.00   0.00  0.03  0.00  0.97  0.00  0.00  0.00  0.03  0.00
  WS02004402WS02004403    1.00   0.03  0.00  0.00  0.97  0.00  0.00  0.00  0.00  0.00
  WS02004139WS02001211    1.00   0.00  0.00  0.00  1.00  0.00  0.00  0.00  0.00  0.00
  WS02004138WS02004139    1.00   0.00  0.00  0.00  1.00  0.00  0.00  0.00  1.00  0.00
  WS02003067WS02003066    1.00   0.09  0.00  0.00  0.91  0.00  0.00  0.00  0.00  0.00
  WS02001213WS02003059    1.00   0.00  0.00  0.00  1.00  0.00  0.00  0.00  0.00  0.00
  WS02001212WS02001213    1.00   0.00  0.00  0.00  0.56  0.00  0.44  0.00  0.00  0.00
  WS02001211WS02001212    1.00   0.00  0.00  0.00  1.00  0.00  0.00  0.00  0.00  0.00
  WS02003072WS02003073    1.00   0.00  0.00  0.00  0.00  0.00  0.00  1.00  0.00  0.00
  WS02003069WS02003072    1.00   0.00  0.00  0.00  1.00  0.00  0.00  0.00  0.61  0.00
  WS02003060WS02003069    1.00   0.00  0.00  0.00  0.98  0.02  0.00  0.00  0.02  0.00
  WS02003059WS02003060    1.00   0.00  0.00  0.00  1.00  0.00  0.00  0.00  0.01  0.00
  HS02004901HS02004770    1.00   0.04  0.00  0.00  0.96  0.00  0.00  0.00  0.00  0.00
  HS02004876HS02004881    1.00   0.01  0.00  0.00  0.94  0.06  0.00  0.00  0.00  0.00
  HS02004870HS02004876    1.00   0.00  0.00  0.00  1.00  0.00  0.00  0.00  0.96  0.00
  HS02004842HS02004848    1.00   0.00  0.04  0.00  0.96  0.00  0.00  0.00  0.67  0.00
  HS02004837HS02004842    1.00   0.00  0.00  0.00  1.00  0.00  0.00  0.00  0.08  0.00
  HS02004830HS02004837    1.00   0.00  0.00  0.00  1.00  0.00  0.00  0.00  0.99  0.00
  HS02004824HS02004830    1.00   0.00  0.00  0.00  1.00  0.00  0.00  0.00  0.00  0.00
  HS02004817HS02004824    1.00   0.00  0.00  0.00  1.00  0.00  0.00  0.00  1.00  0.00
  HS02004770HS02004777    1.00   0.00  0.04  0.00  0.96  0.00  0.00  0.00  0.03  0.00
  HS02004799HS02004480    1.00   0.00  0.01  0.00  0.95  0.00  0.04  0.00  0.00  0.00
  HS02004792HS02004799    1.00   0.00  0.00  0.00  1.00  0.00  0.00  0.00  0.99  0.00
  HS02004788HS02004792    1.00   0.00  0.00  0.00  1.00  0.00  0.00  0.00  0.98  0.00
  HS02004785HS02004788    1.00   0.00  0.00  0.00  1.00  0.00  0.00  0.00  0.00  0.00
  HS02004777HS02004785    1.00   0.00  0.00  0.00  1.00  0.00  0.00  0.00  0.11  0.00
  HS02004480HS02004478    1.00   0.04  0.00  0.00  0.75  0.00  0.00  0.21  0.00  0.00
  HS02004479HS02004480    1.00   0.01  0.00  0.00  0.99  0.00  0.00  0.00  0.10  0.00
  HS02004862HS02004870    1.00   0.00  0.00  0.00  1.00  0.00  0.00  0.00  0.04  0.00
  HS02004848HS02004852    1.00   0.04  0.00  0.00  0.96  0.00  0.00  0.00  0.70  0.00
  HS02004856HS02004862    1.00   0.00  0.06  0.00  0.94  0.00  0.00  0.00  0.85  0.00
  HS02004852HS02004856    1.00   0.04  0.00  0.00  0.96  0.00  0.00  0.00  0.89  0.00
  HS02004802HS02004478    1.00   0.04  0.00  0.00  0.96  0.00  0.00  0.00  0.02  0.00
  HS02004478WS02006287    1.00   0.05  0.00  0.00  0.79  0.16  0.00  0.00  0.73  0.00
  HS02004817HS02004807    1.00   0.00  0.04  0.00  0.96  0.00  0.00  0.00  0.01  0.00
  HS02004807HS02004802    1.00   0.04  0.00  0.00  0.96  0.00  0.00  0.01  0.00  0.00
  YS02001759YS02001757    1.00   0.00  0.00  0.00  1.00  0.00  0.00  0.00  0.13  0.00
  YS02001762YS02001759    1.00   0.00  0.00  0.00  1.00  0.00  0.00  0.00  0.03  0.00
  YS02001765YS02001762    1.00   0.00  0.00  0.00  1.00  0.00  0.00  0.00  0.13  0.00
  YS02001770YS02001767    1.00   0.00  0.00  0.00  1.00  0.00  0.00  0.00  0.00  0.00
  YS02001774YS02001770    1.00   0.00  0.04  0.00  0.96  0.00  0.00  0.00  0.03  0.00
  YS02001779YS02001774    1.00   0.00  0.00  0.00  1.00  0.00  0.00  0.00  0.16  0.00
  YS02001649YS02001757    1.00   0.00  0.00  0.00  1.00  0.00  0.00  0.00  0.13  0.00
  YS02001767YS02001765    1.00   0.00  0.00  0.00  1.00  0.00  0.00  0.00  0.00  0.00
  YS02006561YS02001783    1.00   0.06  0.00  0.00  0.41  0.53  0.00  0.00  0.69  0.00
  YS02001783YS02001784    1.00   0.00  0.06  0.00  0.94  0.00  0.00  0.00  0.00  0.00
  YS02001784YS02001785    1.00   0.00  0.00  0.00  1.00  0.00  0.00  0.00  0.15  0.00
  YS02001788YS02001790    1.00   0.00  0.00  0.00  0.50  0.50  0.00  0.00  0.36  0.00
  YS02001790YS02001791    1.00   0.00  0.00  0.00  0.45  0.55  0.00  0.00  0.06  0.00
  YS02001791YS02001793    1.00   0.00  0.00  0.00  0.47  0.53  0.00  0.00  0.01  0.00
  YS02001910YS02001907    1.00   0.00  0.00  0.00  0.99  0.00  0.00  0.01  0.10  0.00
  YS02001786YS02001788    1.00   0.00  0.00  0.00  0.49  0.51  0.00  0.00  0.00  0.00
  YS02001915YS02001910    1.00   0.00  0.00  0.00  0.99  0.01  0.00  0.00  0.14  0.00
  YS02001918YS02001915    1.00   0.00  0.00  0.00  0.99  0.00  0.00  0.00  0.67  0.00
  YS02001923YS02001920    1.00   0.00  0.00  0.00  1.00  0.00  0.00  0.00  0.88  0.00
  YS02001926YS02001923    1.00   0.00  0.02  0.00  0.08  0.00  0.89  0.00  0.00  0.00
  YS02001929YS02001926    1.00   0.00  0.04  0.00  0.96  0.00  0.00  0.00  0.83  0.00
  YS02001920YS02001918    1.00   0.00  0.00  0.00  1.00  0.00  0.00  0.00  0.00  0.00
  YS02001629YS02163301    1.00   0.05  0.00  0.00  0.95  0.00  0.00  0.00  0.00  0.00
  YS02001619YS02001622    1.00   0.04  0.00  0.00  0.96  0.00  0.00  0.00  0.00  0.00
  YS02001622YS02001625    1.00   0.04  0.00  0.00  0.96  0.00  0.00  0.00  0.06  0.00
  YS02001625YS02001629    1.00   0.04  0.02  0.00  0.92  0.00  0.02  0.00  0.00  0.00
  YS02163301YS02001633    1.00   0.00  0.05  0.00  0.95  0.00  0.00  0.00  0.00  0.00
  YS02163601YS02164001    1.00   0.00  0.02  0.00  0.98  0.00  0.00  0.00  0.00  0.00
  YS02164001YS02001641    1.00   0.00  0.02  0.00  0.98  0.00  0.00  0.00  0.05  0.00
  YS02001641YS02001644    1.00   0.00  0.00  0.00  1.00  0.00  0.00  0.00  0.00  0.00
  YS02001647YS02001649    1.00   0.00  0.06  0.00  0.94  0.00  0.00  0.00  0.01  0.00
  YS02006553YS02006556    1.00   0.00  0.00  0.00  1.00  0.00  0.00  0.00  0.02  0.00
  YS02006556YS02006558    1.00   0.00  0.00  0.00  1.00  0.00  0.00  0.00  0.00  0.00
  YSB6556YSB1171          1.00   0.01  0.02  0.00  0.96  0.00  0.00  0.00  0.00  0.00
  YS02001907YS02006553    1.00   0.00  0.01  0.00  0.99  0.00  0.00  0.00  0.00  0.00
  YS02006558YS02006561    1.00   0.06  0.00  0.00  0.11  0.83  0.00  0.00  0.63  0.00
  YS02001633YS02163601    1.00   0.00  0.00  0.00  1.00  0.00  0.00  0.00  0.13  0.00
  YS02001644YS02001647    1.00   0.00  0.06  0.00  0.94  0.00  0.00  0.00  0.00  0.00
  YS02001745YS02001748    1.00   0.00  0.00  0.00  0.89  0.01  0.00  0.10  0.03  0.00
  YS02001748YS02001751    1.00   0.00  0.00  0.00  0.96  0.04  0.00  0.00  0.12  0.00
  YS02001751YS02001754    1.00   0.00  0.00  0.00  0.93  0.00  0.00  0.07  0.02  0.00
  YS02001754YS02001757    1.00   0.00  0.00  0.00  1.00  0.00  0.00  0.00  0.16  0.00
  YS02001882YS02001884    1.00   0.05  0.00  0.00  0.95  0.00  0.00  0.00  0.00  0.00
  YS02001884YS02001887    1.00   0.02  0.02  0.00  0.97  0.00  0.00  0.00  0.00  0.00
  YS02001890YS02001895    1.00   0.00  0.05  0.00  0.95  0.00  0.00  0.00  0.00  0.00
  YS02001895YS02001898    1.00   0.05  0.00  0.00  0.94  0.00  0.01  0.00  0.00  0.00
  YS02001898YS02001901    1.00   0.05  0.00  0.00  0.95  0.00  0.00  0.00  0.02  0.00
  YS02001901YS02001904    1.00   0.05  0.00  0.00  0.95  0.00  0.00  0.00  0.00  0.00
  YS02001904YS02001907    1.00   0.00  0.05  0.00  0.95  0.00  0.00  0.00  0.00  0.00
  YS02001887YS02001890    1.00   0.00  0.00  0.00  0.99  0.00  0.01  0.00  0.00  0.00
  YS02001652YS02001649    1.00   0.00  0.00  0.00  1.00  0.00  0.00  0.00  0.14  0.00
  YS02001655YS02001652    1.00   0.00  0.00  0.00  0.93  0.00  0.00  0.07  0.02  0.00
  YS02001658YS02001655    1.00   0.00  0.04  0.00  0.92  0.04  0.00  0.00  0.09  0.00
  YS02001661YS02001658    1.00   0.04  0.00  0.00  0.89  0.06  0.00  0.00  0.05  0.00
  YS02001664YS02001661    1.00   0.04  0.00  0.00  0.92  0.05  0.00  0.00  0.17  0.00
  YSB1154YSB6556          1.00   0.04  0.00  0.00  0.96  0.00  0.00  0.00  0.01  0.00
  YSB1174YSB1171          1.00   0.01  0.01  0.00  0.97  0.00  0.00  0.00  0.00  0.00
  YSB1171HS02004479       1.00   0.01  0.00  0.00  0.98  0.00  0.00  0.00  0.09  0.00
  HS02004881HS02006253    1.00   0.02  0.00  0.00  0.47  0.00  0.00  0.51  0.18  0.00
  YS02001793JiankangQianchi    1.00   0.00  0.00  0.00  0.69  0.31  0.00  0.00  0.24  0.00
  YS02001757CaochengTiaoxuchi    1.00   0.00  0.08  0.00  0.92  0.00  0.00  0.00  0.00  0.00
  WSF200WS02003060        1.00   0.00  0.09  0.00  0.68  0.23  0.00  0.00  0.59  0.00
  1                       1.00   0.00  0.00  0.00  0.00  1.00  0.00  0.00  0.17  0.00
  2                       1.00   0.83  0.00  0.00  0.00  0.17  0.00  0.00  0.02  0.00
  3                       1.00   0.64  0.00  0.00  0.00  0.36  0.00  0.00  0.06  0.00
  4                       1.00   1.00  0.00  0.00  0.00  0.00  0.00  0.00  0.00  0.00
  
  
  *************************
  Conduit Surcharge Summary
  *************************
  
  ----------------------------------------------------------------------------
                                                           Hours        Hours 
                         --------- Hours Full --------   Above Full   Capacity
  Conduit                Both Ends  Upstream  Dnstream   Normal Flow   Limited
  ----------------------------------------------------------------------------
  WS02006229WS02006228        0.48      0.65      0.48      2.07         0.48
  WS02006256WS02006235        2.55      2.55      5.38      0.65         0.01
  WS02006252WS02006251        0.39      0.39      0.80      0.70         0.01
  WS02006251WS02006249        0.01      0.01      0.01      0.37         0.01
  WS02006249WS02006248        0.01      0.01      0.01      1.67         0.01
  WS02006247WS02006245        0.01      0.01      0.01      1.76         0.01
  WS02006243WS02006242        0.01      0.01      0.21      0.01         0.01
  WS02006242WS02006240        0.01      0.01      0.42      0.77         0.01
  WS02006239WS02006238        0.29      0.29      0.32      0.14         0.14
  WS02006238WS02006235        0.26      0.26      0.54      0.01         0.01
  WS02006235WS02006234        0.01      0.01      0.05      1.91         0.01
  WS02006234WS02006232        0.01      0.01      0.56      0.01         0.01
  WS02006232WS02006231        0.01      0.01      0.56      0.01         0.01
  WS02006231WS02006230        0.01      0.01      0.01      2.13         0.01
  WS02006230WS02006229        1.31      1.55      1.31      3.18         1.31
  WS02006228WS02006109        0.57      1.05      0.57      2.97         0.57
  WS02006111WS02006112        0.01      0.01      2.32      0.01         0.01
  WS02006110WS02006113        0.01      0.01      0.88      0.01         0.01
  WS02006109WS02006110        0.01      0.01      1.05      0.01         0.01
  WS02004404WS02004405        0.01      0.01      0.01      3.62         0.01
  WS02003072WS02003073        0.01      0.01      0.01      3.05         0.01
  HS02004480HS02004478        0.01      0.01      0.01      0.25         0.01
  YS02001759YS02001757        7.83      7.83      7.91      0.01         0.01
  YS02001762YS02001759        7.80      7.80      7.83      0.01         0.01
  YS02001765YS02001762        7.78      7.78      7.80      0.01         0.01
  YS02001770YS02001767        7.75      7.75      7.76      0.21         0.58
  YS02001774YS02001770        7.74      7.74      7.80      0.01         0.01
  YS02001779YS02001774        7.63      7.63      7.80      0.01         0.01
  YS02001649YS02001757        7.81      7.81      7.91      0.01         0.01
  YS02001767YS02001765        7.76      7.76      7.78      0.01         0.01
  YS02006561YS02001783        0.67      0.67      1.47      0.01         0.01
  YS02001783YS02001784        1.47      1.47      1.51      1.06         1.10
  YS02001784YS02001785        1.48      1.51      1.48      2.08         1.47
  YS02001788YS02001790        1.46      1.46      6.05      0.01         0.01
  YS02001790YS02001791        6.05      6.05      6.10      0.50         0.49
  YS02001791YS02001793        6.10      6.10      6.26      0.01         0.01
  YS02001910YS02001907        1.02      1.02      1.52      0.01         0.01
  YS02001786YS02001788        1.46      1.48      1.46      1.66         1.45
  YS02001915YS02001910        0.79      0.79      1.02      0.01         0.01
  YS02001918YS02001915        0.54      0.54      0.80      0.01         0.01
  YS02001923YS02001920        0.34      0.34      0.57      0.01         0.01
  YS02001920YS02001918        0.54      0.54      0.57      0.01         0.01
  YS02001629YS02163301        7.74      7.74      7.75      0.01         0.01
  YS02001619YS02001622        7.46      7.46      7.48      0.01         0.01
  YS02001622YS02001625        7.48      7.48      7.71      0.01         0.01
  YS02001625YS02001629        7.46      7.46      7.71      0.01         0.01
  YS02163301YS02001633        7.75      7.75      7.78      0.01         0.01
  YS02163601YS02164001        7.78      7.78      7.81      0.01         0.01
  YS02164001YS02001641        7.78      7.78      7.79      0.01         0.02
  YS02001641YS02001644        7.79      7.79      7.79      1.22         1.25
  YS02001647YS02001649        7.70      7.70      7.81      0.01         0.01
  YS02006553YS02006556        1.24      1.24      1.60      0.01         0.01
  YS02006556YS02006558        1.39      1.39      1.67      0.01         0.01
  YS02001907YS02006553        2.12      2.12      2.36      0.01         0.01
  YS02006558YS02006561        0.90      1.20      0.90      1.93         0.90
  YS02001633YS02163601        7.77      7.77      7.81      0.01         0.01
  YS02001644YS02001647        7.70      7.70      7.79      0.01         0.01
  YS02001745YS02001748        0.01      0.01      6.87      0.01         0.01
  YS02001748YS02001751        7.15      7.15      7.46      0.01         0.01
  YS02001751YS02001754        7.46      7.46      7.65      0.01         0.01
  YS02001754YS02001757        7.69      7.69      7.91      0.01         0.01
  YS02001882YS02001884        0.81      0.81      0.84      0.01         0.01
  YS02001884YS02001887        0.90      0.90      0.93      0.01         0.01
  YS02001890YS02001895        0.78      0.78      1.04      0.01         0.01
  YS02001895YS02001898        0.76      0.76      0.78      0.01         0.01
  YS02001898YS02001901        0.79      0.79      0.90      0.01         0.01
  YS02001901YS02001904        0.87      0.87      0.90      0.01         0.01
  YS02001904YS02001907        0.87      0.87      1.62      0.01         0.01
  YS02001887YS02001890        0.97      0.97      1.00      0.01         0.01
  YS02001652YS02001649        7.71      7.71      7.81      0.01         0.01
  YS02001655YS02001652        7.47      7.47      7.69      0.01         0.01
  YS02001658YS02001655        6.96      6.96      7.47      0.01         0.01
  YS02001661YS02001658        0.07      0.07      6.96      0.01         0.01
  YS02001664YS02001661        0.01      0.01      0.59      0.01         0.01
  YS02001793JiankangQianchi        6.22      6.22      8.46      0.01         0.01
  YS02001757CaochengTiaoxuchi        7.18      7.18      7.91      0.01         0.01
  
  
  ***************
  Pumping Summary
  ***************
  
  ---------------------------------------------------------------------------------------------------------
                                                  Min       Avg       Max     Total     Power    % Time Off
                        Percent   Number of      Flow      Flow      Flow    Volume     Usage    Pump Curve
  Pump                 Utilized   Start-Ups       LPS       LPS       LPS  10^6 ltr     Kw-hr    Low   High
  ---------------------------------------------------------------------------------------------------------
  CC-Pump-1               18.33           2      0.00    126.79    200.00     0.840      1.08    0.0    0.0
  CC-Pump-2               18.33           1      0.00    133.40    200.00     0.900      1.24    0.0    0.0
  JK-Pump-1               14.99           2      0.00     99.67    300.00     0.515      7.00    0.0    0.0
  JK-Pump-2               15.00           2      0.00    116.69    300.00     0.596      9.24    0.0    0.0
  XR-Pump-1               13.33           2      0.00     57.47     95.00     0.285      1.40    0.0    0.0
  XR-Pump-2               98.33           4      0.00     73.79     95.00     3.078     29.45    0.0    0.0
  XR-Pump-3               91.67           3      0.00     81.99     95.00     2.993     29.06    0.0    0.0
  XR-Pump-4               98.33           2      0.00     81.78     95.00     3.192     30.13    0.0    0.0
  

  Analysis begun on:  Fri Dec 17 22:31:35 2021
  Analysis ended on:  Fri Dec 17 22:31:37 2021
  Total elapsed time: 00:00:02