
  EPA STORM WATER MANAGEMENT MODEL - VERSION 5.1 (Build 5.3.0.dev0)
  --------------------------------------------------------------

  WARNING 04: minimum elevation drop used for Conduit WS02004404WS02004405
  WARNING 03: negative offset ignored for Link YS02001904YS02001907
  
  *********************************************************
  NOTE: The summary statistics displayed in this report are
  based on results found at every computational time step,  
  not just on results from each reporting time step.
  *********************************************************
  
  ****************
  Analysis Options
  ****************
  Flow Units ............... LPS
  Process Models:
    Rainfall/Runoff ........ YES
    RDII ................... NO
    Snowmelt ............... NO
    Groundwater ............ NO
    Flow Routing ........... YES
    Ponding Allowed ........ NO
    Water Quality .......... NO
  Infiltration Method ...... HORTON
  Flow Routing Method ...... DYNWAVE
  Surcharge Method ......... EXTRAN
  Starting Date ............ 08/28/2015 08:00:00
  Ending Date .............. 08/28/2015 15:50:00
  Antecedent Dry Days ...... 8.0
  Report Time Step ......... 00:01:00
  Wet Time Step ............ 00:01:00
  Dry Time Step ............ 00:01:00
  Routing Time Step ........ 5.00 sec
  Variable Time Step ....... YES
  Maximum Trials ........... 8
  Number of Threads ........ 4
  Head Tolerance ........... 0.001500 m
  
  
  **************************        Volume         Depth
  Runoff Quantity Continuity     hectare-m            mm
  **************************     ---------       -------
  Total Precipitation ......         1.182         2.587
  Evaporation Loss .........         0.000         0.000
  Infiltration Loss ........         0.283         0.619
  Surface Runoff ...........         0.229         0.501
  Final Storage ............         0.670         1.467
  Continuity Error (%) .....        -0.012
  
  
  **************************        Volume        Volume
  Flow Routing Continuity        hectare-m      10^6 ltr
  **************************     ---------     ---------
  Dry Weather Inflow .......         0.616         6.165
  Wet Weather Inflow .......         0.229         2.288
  Groundwater Inflow .......         0.000         0.000
  RDII Inflow ..............         0.000         0.000
  External Inflow ..........         0.102         1.024
  External Outflow .........         0.732         7.316
  Flooding Loss ............         0.021         0.211
  Evaporation Loss .........         0.000         0.000
  Exfiltration Loss ........         0.000         0.000
  Initial Stored Volume ....         0.076         0.761
  Final Stored Volume ......         0.274         2.745
  Continuity Error (%) .....        -0.336
  
  
  *************************
  Highest Continuity Errors
  *************************
  Node HS02004842 (54.87%)
  Node YS02001774 (53.92%)
  Node YS02001884 (45.70%)
  Node YSB1171 (20.35%)
  Node HS02004901 (20.20%)
  
  
  ***************************
  Time-Step Critical Elements
  ***************************
  Link YS02001793JiankangQianchi (59.81%)
  Link WS02006280WS02006229 (15.49%)
  Link 3 (9.90%)
  Link WS02006238WS02006235 (1.53%)
  
  
  ********************************
  Highest Flow Instability Indexes
  ********************************
  Link YS02001754YS02001757 (12)
  Link YS02001649YS02001757 (11)
  Link YS02001751YS02001754 (11)
  Link YS02001762YS02001759 (11)
  Link YS02001767YS02001765 (11)
  
  
  *************************
  Routing Time Step Summary
  *************************
  Minimum Time Step           :     0.65 sec
  Average Time Step           :     3.54 sec
  Maximum Time Step           :     5.00 sec
  Percent in Steady State     :    -0.00
  Average Iterations per Step :     2.01
  Percent Not Converging      :     0.00
  
  
  ***************************
  Subcatchment Runoff Summary
  ***************************
  
  ------------------------------------------------------------------------------------------------------------------------------
                            Total      Total      Total      Total     Imperv       Perv      Total       Total     Peak  Runoff
                           Precip      Runon       Evap      Infil     Runoff     Runoff     Runoff      Runoff   Runoff   Coeff
  Subcatchment                 mm         mm         mm         mm         mm         mm         mm    10^6 ltr      LPS
  ------------------------------------------------------------------------------------------------------------------------------
  sub0                       2.59       0.00       0.00       0.18       1.14       0.00       1.14        0.00     0.21   0.441
  sub1                       2.59       0.00       0.00       0.28       1.05       0.00       1.05        0.01     1.19   0.407
  sub2                       2.59       0.00       0.00       0.96       0.73       0.00       0.73        0.01     1.07   0.283
  sub3                       2.59       0.00       0.00       0.96       0.71       0.00       0.71        0.02     2.23   0.273
  sub4                       2.59       0.00       0.00       0.28       0.96       0.00       0.96        0.02     2.53   0.370
  sub5                       2.59       0.00       0.00       0.18       1.10       0.00       1.10        0.01     2.11   0.425
  sub7                       2.59       0.00       0.00       0.23       1.10       0.00       1.10        0.00     0.72   0.426
  sub8                       2.59       0.00       0.00       0.23       1.09       0.00       1.09        0.01     1.29   0.423
  sub9                       2.59       0.00       0.00       0.23       1.09       0.00       1.09        0.01     0.96   0.422
  sub10                      2.59       0.00       0.00       0.21       1.09       0.00       1.09        0.01     2.09   0.423
  sub11                      2.59       0.00       0.00       0.21       1.11       0.00       1.11        0.01     2.41   0.428
  sub12                      2.59       0.00       0.00       0.34       1.06       0.00       1.06        0.01     1.98   0.411
  sub14                      2.59       0.00       0.00       0.23       1.09       0.00       1.09        0.01     1.87   0.421
  sub15                      2.59       0.00       0.00       0.78       0.84       0.00       0.84        0.01     2.55   0.323
  sub16                      2.59       0.00       0.00       0.85       0.82       0.00       0.82        0.01     1.76   0.315
  sub17                      2.59       0.00       0.00       0.83       0.83       0.00       0.83        0.01     1.43   0.319
  sub22                      2.59       0.00       0.00       1.11       0.69       0.00       0.69        0.04     8.23   0.266
  sub23                      2.59       0.00       0.00       0.96       0.76       0.00       0.76        0.04     6.98   0.294
  sub60                      2.59       0.00       0.00       0.31       0.53       0.00       0.53        0.16    12.08   0.203
  sub61                      2.59       0.00       0.00       0.44       0.61       0.00       0.61        0.19    15.85   0.234
  sub62                      2.59       0.00       0.00       0.21       0.64       0.00       0.64        0.20    16.01   0.246
  sub63                      2.59       0.00       0.00       0.75       0.56       0.00       0.56        0.17    14.99   0.215
  sub64                      2.59       0.00       0.00       0.39       0.50       0.00       0.50        0.15    11.44   0.193
  sub65                      2.59       0.00       0.00       0.34       0.50       0.00       0.50        0.15    11.56   0.195
  sub66                      2.59       0.00       0.00       0.75       0.45       0.00       0.45        0.14    10.65   0.173
  sub67                      2.59       0.00       0.00       0.21       0.75       0.00       0.75        0.23    21.20   0.289
  sub68                      2.59       0.00       0.00       0.36       0.66       0.00       0.66        0.20    17.68   0.254
  sub69                      2.59       0.00       0.00       0.39       0.77       0.00       0.77        0.18    17.91   0.296
  sub70                      2.59       0.78       0.00       1.15       0.76       0.00       0.76        0.17    11.39   0.225
  sub71                      2.59       0.00       0.00       0.21       0.59       0.00       0.59        0.14    11.00   0.229
  sub72                      2.59       0.00       0.00       0.18       0.36       0.00       0.36        0.07     4.77   0.140
  sub73                      2.59       0.74       0.00       1.13       0.68       0.00       0.68        0.16     9.95   0.206
  sub74                      2.59       0.00       0.00       1.94       0.24       0.00       0.24        0.09     9.99   0.092
  
  
  ******************
  Node Depth Summary
  ******************
  
  ---------------------------------------------------------------------------------
                                 Average  Maximum  Maximum  Time of Max    Reported
                                   Depth    Depth      HGL   Occurrence   Max Depth
  Node                 Type       Meters   Meters   Meters  days hr:min      Meters
  ---------------------------------------------------------------------------------
  WS02001211           JUNCTION     0.59     0.61     5.45     0  01:21        0.61
  WS02001212           JUNCTION     0.32     0.34     5.40     0  01:24        0.34
  WS02001213           JUNCTION     0.48     0.53     5.29     0  03:22        0.53
  WS02003069           JUNCTION     0.27     0.32     4.91     0  03:22        0.32
  WS02003072           JUNCTION     0.33     0.39     4.76     0  03:22        0.39
  WS02003073           JUNCTION     0.19     0.23     4.29     0  03:23        0.23
  WS02003060           JUNCTION     0.24     0.29     5.22     0  03:21        0.29
  WS02003066           JUNCTION     0.10     0.17     5.72     0  03:20        0.17
  WS02003059           JUNCTION     0.54     0.59     5.28     0  03:22        0.59
  WS02003067           JUNCTION     0.30     0.44     5.76     0  03:19        0.44
  WS02004401           JUNCTION     0.37     0.49     6.49     0  03:13        0.49
  WS02004402           JUNCTION     0.40     0.53     6.49     0  03:14        0.53
  WS02004403           JUNCTION     0.43     0.56     6.49     0  03:14        0.56
  WS02004404           JUNCTION     0.50     0.64     6.49     0  03:14        0.64
  WS02004406           JUNCTION     0.52     0.65     6.48     0  03:14        0.65
  WS02004409           JUNCTION     0.17     0.29     6.06     0  03:17        0.29
  WS02004410           JUNCTION     0.20     0.32     6.04     0  03:18        0.32
  WS02004411           JUNCTION     0.23     0.35     6.03     0  03:19        0.35
  WS02004412           JUNCTION     0.25     0.38     6.02     0  03:19        0.38
  WS02004413           JUNCTION     0.39     0.55     6.02     0  03:19        0.55
  WS02004405           JUNCTION     0.50     0.63     6.48     0  03:14        0.63
  WS02006109           JUNCTION     0.41     0.52     7.14     0  03:07        0.52
  WS02006110           JUNCTION     0.43     0.55     7.13     0  03:07        0.55
  WS02006111           JUNCTION     0.09     0.13     6.84     0  03:08        0.13
  WS02006112           JUNCTION     0.49     0.63     6.51     0  03:12        0.63
  WS02006113           JUNCTION     0.13     0.20     7.09     0  03:09        0.20
  WS02006115           JUNCTION     0.25     0.36     6.50     0  03:13        0.36
  WS02006116           JUNCTION     0.34     0.45     6.49     0  03:13        0.45
  WS02006230           JUNCTION     0.31     0.41     7.16     0  03:07        0.41
  WS02006231           JUNCTION     0.17     0.32     7.44     0  00:10        0.31
  WS02006232           JUNCTION     0.27     0.43     7.47     0  00:10        0.43
  WS02006234           JUNCTION     0.16     0.33     7.48     0  00:10        0.33
  WS02006235           JUNCTION     0.19     0.36     7.52     0  00:09        0.35
  WS02006238           JUNCTION     0.21     0.38     7.52     0  00:09        0.38
  WS02006240           JUNCTION     0.07     0.23     7.53     0  00:10        0.23
  WS02006242           JUNCTION     0.10     0.26     7.53     0  00:10        0.26
  WS02006243           JUNCTION     0.03     0.11     7.53     0  00:11        0.11
  WS02006245           JUNCTION     0.04     0.07     7.56     0  02:49        0.07
  WS02006247           JUNCTION     0.04     0.08     7.58     0  02:48        0.08
  WS02006248           JUNCTION     0.02     0.06     7.64     0  02:47        0.06
  WS02006249           JUNCTION     0.05     0.09     7.69     0  02:46        0.09
  WS02006239           JUNCTION     0.14     0.31     7.52     0  00:10        0.31
  WS02006251           JUNCTION     0.03     0.07     7.74     0  02:44        0.07
  WS02006252           JUNCTION     0.00     0.00     8.24     0  00:00        0.00
  WS02006253           JUNCTION     0.06     0.11     7.75     0  02:43        0.11
  WS02006256           JUNCTION     0.50     1.15     8.09     0  00:00        1.10
  WS02004138           JUNCTION     0.14     0.14     7.39     0  00:00        0.14
  WS02004407           JUNCTION     0.08     0.13     6.45     0  03:15        0.13
  WS02006228           JUNCTION     0.39     0.50     7.15     0  03:07        0.50
  WS02006229           JUNCTION     0.35     0.46     7.15     0  03:07        0.46
  WS02006280           JUNCTION     0.03     0.07     8.34     0  02:45        0.07
  WS02006284           JUNCTION     0.29     0.37     8.77     0  02:45        0.37
  WS02006287           JUNCTION     0.05     0.10     9.05     0  02:45        0.10
  WSF200               JUNCTION     0.07     0.13     5.36     0  03:20        0.13
  HS02004901           JUNCTION     0.07     0.13     9.96     0  02:45        0.13
  HS02004881           JUNCTION     0.00     0.01     9.04     0  02:42        0.01
  HS02004876           JUNCTION     0.02     0.05     9.08     0  02:43        0.05
  HS02004870           JUNCTION     0.00     0.01     9.30     0  02:40        0.01
  HS02004862           JUNCTION     0.01     0.01     9.40     0  02:43        0.01
  HS02004856           JUNCTION     0.05     0.08     9.51     0  02:41        0.08
  HS02004852           JUNCTION     0.00     0.01     9.52     0  02:44        0.01
  HS02004848           JUNCTION     0.00     0.01     9.61     0  02:38        0.01
  HS02004842           JUNCTION     0.29     0.34     9.61     0  02:39        0.34
  HS02004837           JUNCTION     0.02     0.03     9.61     0  02:38        0.03
  HS02004830           JUNCTION     0.03     0.04     9.51     0  02:39        0.04
  HS02004824           JUNCTION     0.01     0.02     9.42     0  02:42        0.02
  HS02004817           JUNCTION     0.36     0.44     9.29     0  02:45        0.44
  HS02004807           JUNCTION     0.08     0.12     9.29     0  02:45        0.12
  HS02004802           JUNCTION     0.11     0.16     9.29     0  02:45        0.16
  HS02004799           JUNCTION     0.07     0.12     9.33     0  02:43        0.12
  HS02004792           JUNCTION     0.01     0.03     9.56     0  02:42        0.03
  HS02004788           JUNCTION     0.01     0.02     9.92     0  02:45        0.02
  HS02004785           JUNCTION     0.02     0.05     9.95     0  02:45        0.05
  HS02004777           JUNCTION     0.09     0.16     9.96     0  02:45        0.16
  HS02004770           JUNCTION     0.07     0.12     9.96     0  02:44        0.12
  HS02004480           JUNCTION     0.04     0.09     9.33     0  02:44        0.09
  HS02004479           JUNCTION     0.07     0.12     9.33     0  02:43        0.12
  HS02004478           JUNCTION     0.03     0.06     9.29     0  02:44        0.06
  YS02001745           JUNCTION     0.03     0.05     7.57     0  03:01        0.05
  YS02001748           JUNCTION     0.06     0.17     7.24     0  07:48        0.17
  YS02001751           JUNCTION     0.16     0.37     7.24     0  07:49        0.36
  YS02001754           JUNCTION     0.33     0.64     7.25     0  07:49        0.64
  YS02001762           JUNCTION     0.48     0.84     7.24     0  07:49        0.84
  YS02001765           JUNCTION     0.44     0.79     7.24     0  07:49        0.79
  YS02001767           JUNCTION     0.42     0.75     7.24     0  07:48        0.75
  YS02001770           JUNCTION     0.41     0.75     7.24     0  07:49        0.75
  YS02001774           JUNCTION     0.46     0.82     7.24     0  07:49        0.82
  YS02001779           JUNCTION     0.27     0.56     7.24     0  07:48        0.56
  YS02001882           JUNCTION     0.12     0.21     6.92     0  03:05        0.21
  YS02001884           JUNCTION     0.20     0.31     6.92     0  03:04        0.31
  YS02001759           JUNCTION     0.51     0.88     7.24     0  07:49        0.88
  YS02001887           JUNCTION     0.27     0.39     6.92     0  03:04        0.39
  YS02001890           JUNCTION     0.30     0.42     6.92     0  03:05        0.42
  YS02001898           JUNCTION     0.10     0.18     6.91     0  03:05        0.18
  YS02001901           JUNCTION     0.19     0.30     6.91     0  03:06        0.30
  YS02001904           JUNCTION     0.18     0.28     6.91     0  03:06        0.28
  YS02001907           JUNCTION     0.46     0.62     6.91     0  03:05        0.62
  YS02001910           JUNCTION     0.27     0.40     6.91     0  03:05        0.40
  YS02001915           JUNCTION     0.12     0.19     6.91     0  03:06        0.19
  YS02001918           JUNCTION     0.04     0.05     7.11     0  03:07        0.05
  YS02001619           JUNCTION     0.13     0.31     7.24     0  07:48        0.31
  YS02001629           JUNCTION     0.37     0.69     7.24     0  07:49        0.69
  YS02001641           JUNCTION     0.46     0.81     7.24     0  07:49        0.80
  YS02001644           JUNCTION     0.46     0.81     7.24     0  07:49        0.81
  YS02001652           JUNCTION     0.34     0.65     7.24     0  07:49        0.65
  YS02001655           JUNCTION     0.18     0.39     7.24     0  07:48        0.39
  YS02001920           JUNCTION     0.11     0.13     7.13     0  03:06        0.13
  YS02001923           JUNCTION     0.02     0.03     7.29     0  03:04        0.03
  YS02001926           JUNCTION     0.06     0.09     7.53     0  03:04        0.09
  YS02001929           JUNCTION     0.02     0.04     7.73     0  03:01        0.04
  YS02001658           JUNCTION     0.04     0.10     7.24     0  07:48        0.10
  YS02001661           JUNCTION     0.08     0.12     7.53     0  03:01        0.12
  YS02001664           JUNCTION     0.03     0.05     7.97     0  03:01        0.05
  YS02001622           JUNCTION     0.14     0.34     7.24     0  07:50        0.34
  YS02001633           JUNCTION     0.45     0.79     7.24     0  07:50        0.79
  YS02001649           JUNCTION     0.49     0.85     7.24     0  07:48        0.85
  YS02001757           JUNCTION     0.60     0.98     7.24     0  07:49        0.98
  YS02001895           JUNCTION     0.10     0.17     6.92     0  03:05        0.17
  YS02001625           JUNCTION     0.36     0.64     7.24     0  07:49        0.64
  YS02163301           JUNCTION     0.39     0.72     7.24     0  07:49        0.72
  YS02163601           JUNCTION     0.49     0.84     7.24     0  07:49        0.84
  YS02164001           JUNCTION     0.44     0.78     7.24     0  07:49        0.78
  YS02001647           JUNCTION     0.33     0.63     7.24     0  07:49        0.63
  YSB1154              JUNCTION     0.18     0.27     9.33     0  02:44        0.27
  YSB6556              JUNCTION     0.10     0.16     9.33     0  02:44        0.16
  YSB1174              JUNCTION     0.15     0.22     9.33     0  02:44        0.22
  YSB1171              JUNCTION     0.32     0.42     9.33     0  02:43        0.42
  YS02006553           JUNCTION     0.46     0.63     6.91     0  03:06        0.63
  YS02006561           JUNCTION     0.05     0.09     6.75     0  03:06        0.09
  YS02006556           JUNCTION     0.44     0.60     6.91     0  03:06        0.60
  YS02006558           JUNCTION     0.49     0.64     6.91     0  03:06        0.64
  YS02001783           JUNCTION     0.08     0.15     6.30     0  03:06        0.15
  YS02001784           JUNCTION     0.11     0.19     6.26     0  03:07        0.19
  YS02001786           JUNCTION     0.10     0.16     6.19     0  03:07        0.16
  YS02001788           JUNCTION     0.07     0.11     6.09     0  03:08        0.11
  YS02001790           JUNCTION     0.08     0.14     5.78     0  03:08        0.14
  YS02001791           JUNCTION     0.05     0.09     5.56     0  03:09        0.09
  YS02001793           JUNCTION     0.04     0.06     4.89     0  03:09        0.06
  WS02004139           JUNCTION     0.54     0.55     5.46     0  02:11        0.55
  WSC                  OUTFALL      0.19     0.23     0.90     0  03:24        0.23
  3                    OUTFALL      0.01     0.13     6.13     0  00:00        0.10
  4                    OUTFALL      0.00     0.00     7.00     0  00:00        0.00
  5                    OUTFALL      0.00     0.00     5.00     0  00:00        0.00
  JK-storage           STORAGE      0.15     3.00     3.80     0  00:00        2.70
  CC-storage           STORAGE      0.08     0.24     7.24     0  07:50        0.24
  XR-storage           STORAGE      6.64     7.72     5.72     0  04:48        7.72
  
  
  *******************
  Node Inflow Summary
  *******************
  
  -------------------------------------------------------------------------------------------------
                                  Maximum  Maximum                  Lateral       Total        Flow
                                  Lateral    Total  Time of Max      Inflow      Inflow     Balance
                                   Inflow   Inflow   Occurrence      Volume      Volume       Error
  Node                 Type           LPS      LPS  days hr:min    10^6 ltr    10^6 ltr     Percent
  -------------------------------------------------------------------------------------------------
  WS02001211           JUNCTION      7.35   197.67     0  03:14       0.207        5.54       0.549
  WS02001212           JUNCTION      0.00   197.67     0  01:24           0        5.51       0.287
  WS02001213           JUNCTION      0.00   197.67     0  01:24           0        5.49       0.319
  WS02003069           JUNCTION      0.32   323.80     0  03:21     0.00902        7.24       0.224
  WS02003072           JUNCTION      0.00   323.78     0  03:22           0        7.22       0.306
  WS02003073           JUNCTION      1.82   325.59     0  03:23      0.0514        7.25       0.315
  WS02003060           JUNCTION     16.53   323.48     0  03:20       0.466        7.25       0.214
  WS02003066           JUNCTION      0.00   109.35     0  03:19           0        1.34       0.134
  WS02003059           JUNCTION      0.00   197.78     0  03:42           0        5.48       0.547
  WS02003067           JUNCTION      0.00   109.35     0  03:19           0        1.34       0.367
  WS02004401           JUNCTION      0.00   110.10     0  03:10           0        1.46       0.814
  WS02004402           JUNCTION      0.00   109.92     0  03:12           0        1.45       0.821
  WS02004403           JUNCTION      0.00   109.82     0  03:12           0        1.44       0.794
  WS02004404           JUNCTION      0.16   109.93     0  03:12     0.00457        1.43       0.650
  WS02004406           JUNCTION      0.00   109.89     0  03:13           0        1.41       1.633
  WS02004409           JUNCTION      0.00   109.86     0  03:15           0        1.38       0.331
  WS02004410           JUNCTION      0.00   109.71     0  03:15           0        1.38       0.455
  WS02004411           JUNCTION      0.00   109.57     0  03:16           0        1.37       0.541
  WS02004412           JUNCTION      0.00   109.46     0  03:17           0        1.37       0.687
  WS02004413           JUNCTION      0.00   109.38     0  03:18           0        1.36       1.167
  WS02004405           JUNCTION      0.04   109.94     0  03:12     0.00107        1.42       0.980
  WS02006109           JUNCTION      1.23   110.21     0  03:06      0.0347        1.51       0.847
  WS02006110           JUNCTION      0.00   110.14     0  03:07           0         1.5       0.658
  WS02006111           JUNCTION      0.00   110.76     0  03:08           0        1.49       0.099
  WS02006112           JUNCTION      1.43   111.00     0  03:08     0.00708         1.5       1.240
  WS02006113           JUNCTION      0.00   110.13     0  03:08           0        1.49       0.179
  WS02006115           JUNCTION      0.00   110.62     0  03:09           0        1.48       0.548
  WS02006116           JUNCTION      0.00   110.33     0  03:09           0        1.47       0.584
  WS02006230           JUNCTION     10.28   128.85     0  00:10        0.29        1.11       0.573
  WS02006231           JUNCTION      0.00   120.56     0  00:10           0       0.826       0.283
  WS02006232           JUNCTION      0.00   122.97     0  00:10           0       0.833       0.851
  WS02006234           JUNCTION      0.00   126.26     0  00:09           0       0.832      -0.033
  WS02006235           JUNCTION      0.00   166.25     0  00:01           0       0.861       0.507
  WS02006238           JUNCTION      0.00    88.92     0  00:00           0      0.0787       1.841
  WS02006240           JUNCTION      0.00    40.17     0  00:02           0      0.0592       0.574
  WS02006242           JUNCTION      0.00    28.67     0  00:04           0        0.05       1.299
  WS02006243           JUNCTION      0.00     9.12     0  00:06           0       0.043       0.073
  WS02006245           JUNCTION      0.00     6.24     0  02:48           0      0.0413       0.874
  WS02006247           JUNCTION      0.00     6.25     0  02:47           0       0.041       0.262
  WS02006248           JUNCTION      0.00     6.25     0  02:46           0      0.0409       0.076
  WS02006249           JUNCTION      0.00     6.27     0  02:44           0      0.0412       0.792
  WS02006239           JUNCTION      0.00    71.07     0  00:01           0      0.0692       1.812
  WS02006251           JUNCTION      0.08     6.27     0  02:42     0.00217      0.0413       0.192
  WS02006252           JUNCTION      0.00     0.00     0  00:00           0           0       0.000 ltr
  WS02006253           JUNCTION      0.21     6.20     0  02:42    0.000924      0.0393       0.389
  WS02006256           JUNCTION      0.00   300.00     0  00:00           0       0.891       0.214
  WS02004138           JUNCTION      0.00   190.00     0  00:20           0        5.36       0.074
  WS02004407           JUNCTION      0.00   109.86     0  03:14           0        1.39       0.162
  WS02006228           JUNCTION      0.00   113.35     0  00:11           0        1.49       0.495
  WS02006229           JUNCTION      0.00   125.25     0  00:10           0        1.49       0.396
  WS02006280           JUNCTION      0.00    41.27     0  02:45           0       0.386       0.020
  WS02006284           JUNCTION      0.10    41.28     0  02:45      0.0027       0.388       0.305
  WS02006287           JUNCTION      0.00    41.18     0  02:44           0       0.386       0.179
  WSF200               JUNCTION      0.00   109.35     0  03:20           0        1.33       0.092
  HS02004901           JUNCTION      1.76     1.76     0  02:30     0.00854     0.00868      25.313
  HS02004881           JUNCTION      0.72     6.02     0  02:42     0.00371      0.0384       0.147
  HS02004876           JUNCTION      1.19     5.37     0  02:39       0.007      0.0352       1.438
  HS02004870           JUNCTION      1.29     4.20     0  02:39     0.00698      0.0283       0.362
  HS02004862           JUNCTION      1.27     2.96     0  02:40      0.0125      0.0215       0.755
  HS02004856           JUNCTION      0.96     1.70     0  02:39     0.00525      0.0105      15.851
  HS02004852           JUNCTION      0.00     0.79     0  02:41           0     0.00526       0.777
  HS02004848           JUNCTION      2.23     2.23     0  02:41      0.0159      0.0159       0.235
  HS02004842           JUNCTION      0.00     4.47     0  00:03           0      0.0237     121.577
  HS02004837           JUNCTION      8.44     9.87     0  02:37       0.191       0.202       0.405
  HS02004830           JUNCTION      0.15    10.02     0  02:38     0.00423       0.192       0.644
  HS02004824           JUNCTION      2.58    12.59     0  02:42      0.0214       0.212       0.253
  HS02004817           JUNCTION      0.60    13.18     0  02:42      0.0169       0.229       7.851
  HS02004807           JUNCTION      2.41    15.45     0  02:41      0.0129       0.225       1.911
  HS02004802           JUNCTION      0.00    15.42     0  02:44           0       0.221       1.868
  HS02004799           JUNCTION      1.87    22.05     0  02:41      0.0104       0.162       1.389
  HS02004792           JUNCTION      8.51    20.25     0  02:41      0.0513       0.152       0.279
  HS02004788           JUNCTION      4.22    12.22     0  02:44      0.0615       0.102       0.389
  HS02004785           JUNCTION      0.15     8.17     0  02:42     0.00423      0.0424       1.116
  HS02004777           JUNCTION      0.03     8.18     0  02:37    0.000846      0.0426      13.788
  HS02004770           JUNCTION      6.98     8.49     0  02:34      0.0363      0.0432       7.718
  HS02004480           JUNCTION      0.00    25.80     0  02:42           0       0.181       0.321
  HS02004479           JUNCTION      0.00     3.78     0  02:45           0      0.0315       2.356
  HS02004478           JUNCTION      0.00    41.19     0  02:44           0       0.387       0.191
  YS02001745           JUNCTION     12.09    12.09     0  03:01        0.16        0.16       0.126
  YS02001748           JUNCTION      0.04    12.12     0  03:01     0.00127       0.161       1.068
  YS02001751           JUNCTION      0.01    16.10     0  05:39     0.00031       0.168       4.797
  YS02001754           JUNCTION      0.26    36.17     0  05:25     0.00733       0.203       8.329
  YS02001762           JUNCTION      0.00    19.63     0  03:22           0        0.15      14.163
  YS02001765           JUNCTION      0.00    22.16     0  03:22           0        0.15      15.642
  YS02001767           JUNCTION      0.54    19.17     0  03:21      0.0151       0.165      20.881
  YS02001770           JUNCTION     16.17    18.30     0  03:21         0.2       0.202      13.712
  YS02001774           JUNCTION      0.00     9.13     0  03:08           0      0.0389     117.034
  YS02001779           JUNCTION      0.01     5.47     0  03:16    0.000141      0.0154     151.689
  YS02001882           JUNCTION      0.00     1.02     0  02:07           0     0.00182     143.817
  YS02001884           JUNCTION      0.00     3.21     0  02:10           0     0.00776      84.152
  YS02001759           JUNCTION     15.89    36.29     0  03:22       0.188       0.307       7.319
  YS02001887           JUNCTION     21.65    21.65     0  03:01       0.244       0.246       2.378
  YS02001890           JUNCTION      0.00    21.23     0  03:00           0       0.233       2.801
  YS02001898           JUNCTION      0.00    21.02     0  03:04           0       0.225       0.589
  YS02001901           JUNCTION      0.00    21.06     0  03:04           0       0.225       1.874
  YS02001904           JUNCTION      0.00    20.97     0  03:05           0       0.225       1.758
  YS02001907           JUNCTION      0.00    39.34     0  03:07           0       0.506       4.071
  YS02001910           JUNCTION      0.00    18.56     0  03:04           0       0.292       2.974
  YS02001915           JUNCTION     11.02    18.58     0  03:01        0.14       0.294       1.001
  YS02001918           JUNCTION      0.00     7.69     0  03:06           0       0.155       0.340
  YS02001619           JUNCTION     10.65    10.65     0  03:01       0.137       0.137       2.425
  YS02001629           JUNCTION      0.00    14.44     0  03:18           0       0.103      14.244
  YS02001641           JUNCTION      0.00    33.91     0  03:18           0       0.191      10.233
  YS02001644           JUNCTION     11.47    43.67     0  03:18       0.153       0.321       7.302
  YS02001652           JUNCTION      0.00    17.04     0  03:12           0       0.163      10.347
  YS02001655           JUNCTION      0.15    15.12     0  03:01     0.00434       0.171       5.434
  YS02001920           JUNCTION      2.87     7.69     0  03:04      0.0809       0.156       0.848
  YS02001923           JUNCTION      0.04     4.82     0  03:04     0.00106      0.0752       0.164
  YS02001926           JUNCTION      0.05     4.81     0  03:01     0.00147      0.0751       1.263
  YS02001929           JUNCTION      4.77     4.77     0  03:01      0.0737      0.0737       0.148
  YS02001658           JUNCTION      0.00    14.98     0  03:01           0       0.167       0.775
  YS02001661           JUNCTION      0.00    14.99     0  03:01           0       0.168       0.346
  YS02001664           JUNCTION     14.99    14.99     0  03:01       0.168       0.168       0.059
  YS02001622           JUNCTION      0.00    10.95     0  03:17           0       0.134       8.151
  YS02001633           JUNCTION     11.76    29.03     0  03:17        0.16       0.237      12.450
  YS02001649           JUNCTION      0.00    55.33     0  03:18           0       0.416       8.390
  YS02001757           JUNCTION      0.00    90.29     0  03:18           0       0.813      12.200
  YS02001895           JUNCTION      0.00    21.06     0  03:03           0       0.227       0.957
  YS02001625           JUNCTION      0.00    12.70     0  03:17           0       0.124      23.433
  YS02163301           JUNCTION      0.00    16.95     0  03:18           0      0.0962      23.536
  YS02163601           JUNCTION      0.11    31.15     0  03:17      0.0031       0.211      14.212
  YS02164001           JUNCTION      0.00    32.97     0  03:18           0       0.194       9.335
  YS02001647           JUNCTION      0.00    43.36     0  03:17           0       0.289       7.175
  YSB1154              JUNCTION      2.11     2.11     0  02:35      0.0125       0.014      11.519
  YSB6556              JUNCTION      0.00     2.22     0  01:37           0      0.0151       8.948
  YSB1174              JUNCTION      1.98     1.98     0  02:29     0.00928      0.0104      14.153
  YSB1171              JUNCTION      0.00     3.84     0  02:41           0       0.031      25.548
  YS02006553           JUNCTION      0.00    39.41     0  03:09           0       0.493       2.690
  YS02006561           JUNCTION      0.00    57.20     0  03:06           0       0.679       0.049
  YS02006556           JUNCTION      0.00    39.46     0  03:09           0       0.495       1.896
  YS02006558           JUNCTION     18.56    57.22     0  03:06       0.227       0.701       0.563
  YS02001783           JUNCTION      0.00    57.20     0  03:06           0       0.679       0.114
  YS02001784           JUNCTION      1.06    58.24     0  03:07      0.0299       0.708       0.193
  YS02001786           JUNCTION      0.06    58.28     0  03:07     0.00159       0.708       0.197
  YS02001788           JUNCTION      0.07    58.35     0  03:08       0.002       0.709       0.103
  YS02001790           JUNCTION      0.15    58.50     0  03:08     0.00437       0.713       0.133
  YS02001791           JUNCTION      0.00    58.50     0  03:08           0       0.712       0.064
  YS02001793           JUNCTION      0.00    58.50     0  03:09           0       0.711       0.031
  WS02004139           JUNCTION      0.32   191.11     0  00:00     0.00905        5.36       0.590
  WSC                  OUTFALL       0.00   325.58     0  03:24           0        7.23       0.000
  3                    OUTFALL       0.00   250.55     0  00:00           0       0.088       0.000
  4                    OUTFALL       0.00     0.00     0  00:00           0           0       0.000 ltr
  5                    OUTFALL       0.00     0.00     0  00:00           0           0       0.000 ltr
  JK-storage           STORAGE       0.00    58.50     0  03:09           0       0.862      -3.173
  CC-storage           STORAGE       0.00    76.43     0  03:21           0       0.686       1.994
  XR-storage           STORAGE     219.94   219.94     0  03:01         5.9         6.5       0.001
  
  
  **********************
  Node Surcharge Summary
  **********************
  
  No nodes were surcharged.
  
  
  *********************
  Node Flooding Summary
  *********************
  
  Flooding refers to all water that overflows a node, whether it ponds or not.
  --------------------------------------------------------------------------
                                                             Total   Maximum
                                 Maximum   Time of Max       Flood    Ponded
                        Hours       Rate    Occurrence      Volume     Depth
  Node                 Flooded       LPS   days hr:min    10^6 ltr    Meters
  --------------------------------------------------------------------------
  XR-storage              3.03     21.93      0  04:48       0.211     0.000
  
  
  **********************
  Storage Volume Summary
  **********************
  
  --------------------------------------------------------------------------------------------------
                         Average     Avg  Evap Exfil       Maximum     Max    Time of Max    Maximum
                          Volume    Pcnt  Pcnt  Pcnt        Volume    Pcnt     Occurrence    Outflow
  Storage Unit           1000 m3    Full  Loss  Loss       1000 m3    Full    days hr:min        LPS
  --------------------------------------------------------------------------------------------------
  JK-storage               0.007       3     0     0         0.151      52       0  00:00     300.00
  CC-storage               0.214       1     0     0         0.673       4       0  07:50       0.00
  XR-storage               0.797      86     0     0         0.926     100       0  04:48     190.00
  
  
  ***********************
  Outfall Loading Summary
  ***********************
  
  -----------------------------------------------------------
                         Flow       Avg       Max       Total
                         Freq      Flow      Flow      Volume
  Outfall Node           Pcnt       LPS       LPS    10^6 ltr
  -----------------------------------------------------------
  WSC                   99.97    239.62    325.58       7.228
  3                      9.90    150.64    250.55       0.088
  4                      0.00      0.00      0.00       0.000
  5                      0.00      0.00      0.00       0.000
  -----------------------------------------------------------
  System                27.47    390.26    325.58       7.316
  
  
  ********************
  Link Flow Summary
  ********************
  
  -----------------------------------------------------------------------------
                                 Maximum  Time of Max   Maximum    Max/    Max/
                                  |Flow|   Occurrence   |Veloc|    Full    Full
  Link                 Type          LPS  days hr:min     m/sec    Flow   Depth
  -----------------------------------------------------------------------------
  WS02003066WSF200     CONDUIT    109.35     0  03:20      1.84    0.02    0.10
  WS02006287WS02006284 CONDUIT     41.18     0  02:45      0.89    0.02    0.11
  WS02006284WS02006280 CONDUIT     41.27     0  02:45      1.16    0.02    0.09
  WS02006280WS02006229 CONDUIT     41.27     0  02:46      1.84    0.01    0.07
  WS02006229WS02006228 CONDUIT    113.35     0  00:11      0.83    0.38    0.58
  WS02006256WS02006235 CONDUIT    166.25     0  00:01      2.58    1.76    1.00
  WS02006253WS02006251 CONDUIT      6.20     0  02:42      0.24    0.02    0.12
  WS02006252WS02006251 CONDUIT      0.00     0  00:00      0.00    0.00    0.00
  WS02006251WS02006249 CONDUIT      6.27     0  02:44      0.27    0.02    0.11
  WS02006249WS02006248 CONDUIT      6.25     0  02:46      0.32    0.03    0.10
  WS02006248WS02006247 CONDUIT      6.25     0  02:47      0.34    0.01    0.09
  WS02006247WS02006245 CONDUIT      6.24     0  02:48      0.29    0.05    0.10
  WS02006245WS02006243 CONDUIT      6.24     0  02:49      0.40    0.02    0.10
  WS02006243WS02006242 CONDUIT     14.59     0  00:12      0.30    0.03    0.24
  WS02006242WS02006240 CONDUIT     29.18     0  00:12      0.64    0.12    0.34
  WS02006240WS02006239 CONDUIT     42.40     0  00:11      0.58    0.13    0.36
  WS02006239WS02006238 CONDUIT     71.07     0  00:01      0.67    0.23    0.48
  WS02006238WS02006235 CONDUIT     95.49     0  00:11      1.25    0.21    0.52
  WS02006235WS02006234 CONDUIT    126.26     0  00:09      0.93    1.33    0.47
  WS02006234WS02006232 CONDUIT    122.97     0  00:10      1.13    0.25    0.54
  WS02006232WS02006231 CONDUIT    120.56     0  00:10      0.63    0.25    0.53
  WS02006231WS02006230 CONDUIT    118.57     0  00:10      0.90    1.80    0.38
  WS02006230WS02006229 CONDUIT    125.25     0  00:10      0.86    2.79    0.59
  WS02006228WS02006109 CONDUIT    108.98     0  03:06      0.75    0.48    0.63
  WS02006116WS02004401 CONDUIT    110.10     0  03:10      0.73    0.15    0.47
  WS02006115WS02006116 CONDUIT    110.33     0  03:09      0.79    0.14    0.38
  WS02006113WS02006111 CONDUIT    110.76     0  03:08      1.48    0.13    0.21
  WS02006112WS02006115 CONDUIT    110.62     0  03:09      0.33    0.07    0.49
  WS02006111WS02006112 CONDUIT    110.28     0  03:08      1.32    0.05    0.46
  WS02006110WS02006113 CONDUIT    110.13     0  03:08      0.48    0.10    0.46
  WS02006109WS02006110 CONDUIT    110.14     0  03:07      0.53    0.21    0.60
  WS02004411WS02004412 CONDUIT    109.46     0  03:17      0.42    0.16    0.36
  WS02004401WS02004402 CONDUIT    109.92     0  03:12      0.77    0.13    0.51
  WS02004413WS02003067 CONDUIT    109.35     0  03:19      0.45    0.05    0.35
  WS02004412WS02004413 CONDUIT    109.38     0  03:18      0.36    0.07    0.46
  WS02004410WS02004411 CONDUIT    109.57     0  03:16      0.47    0.15    0.34
  WS02004409WS02004410 CONDUIT    109.71     0  03:15      0.54    0.14    0.31
  WS02004407WS02004409 CONDUIT    109.86     0  03:15      0.90    0.04    0.21
  WS02004406WS02004407 CONDUIT    109.86     0  03:14      0.38    0.05    0.39
  WS02004405WS02004406 CONDUIT    109.89     0  03:13      0.66    0.22    0.64
  WS02004404WS02004405 CONDUIT    109.90     0  03:12      0.84    1.08    0.64
  WS02004403WS02004404 CONDUIT    109.77     0  03:12      0.74    0.08    0.60
  WS02004402WS02004403 CONDUIT    109.82     0  03:12      0.75    0.16    0.54
  WS02004139WS02001211 CONDUIT    190.32     0  03:14      0.69    0.24    0.44
  WS02004138WS02004139 CONDUIT    190.79     0  00:00      2.94    0.04    0.32
  WS02003067WS02003066 CONDUIT    109.35     0  03:19      0.48    0.04    0.25
  WS02001213WS02003059 CONDUIT    197.78     0  03:42      0.65    0.33    0.55
  WS02001212WS02001213 CONDUIT    197.67     0  01:24      1.03    0.30    0.29
  WS02001211WS02001212 CONDUIT    197.67     0  01:24      0.54    0.15    0.48
  WS02003072WS02003073 CONDUIT    323.77     0  03:23      1.19    0.70    0.29
  WS02003069WS02003072 CONDUIT    323.78     0  03:22      1.15    0.16    0.30
  WS02003060WS02003069 CONDUIT    323.48     0  03:21      1.43    0.13    0.25
  WS02003059WS02003060 CONDUIT    198.00     0  03:42      0.67    0.13    0.44
  HS02004901HS02004770 CONDUIT      1.59     0  02:40      0.02    0.01    0.18
  HS02004876HS02004881 CONDUIT      5.34     0  02:43      0.20    0.06    0.04
  HS02004870HS02004876 CONDUIT      4.20     0  02:40      0.14    0.00    0.04
  HS02004842HS02004848 CONDUIT      1.46     0  02:47      0.01    0.00    0.25
  HS02004837HS02004842 CONDUIT      4.47     0  00:03      0.41    0.00    0.26
  HS02004830HS02004837 CONDUIT      9.87     0  02:38      0.30    0.01    0.05
  HS02004824HS02004830 CONDUIT     10.02     0  02:39      0.35    0.01    0.04
  HS02004817HS02004824 CONDUIT     12.58     0  02:42      0.17    0.01    0.33
  HS02004770HS02004777 CONDUIT      8.15     0  02:37      0.06    0.01    0.20
  HS02004799HS02004480 CONDUIT     22.02     0  02:42      0.22    0.03    0.14
  HS02004792HS02004799 CONDUIT     20.24     0  02:42      0.26    0.01    0.11
  HS02004788HS02004792 CONDUIT     12.22     0  02:45      0.44    0.01    0.04
  HS02004785HS02004788 CONDUIT      8.13     0  02:45      0.21    0.06    0.05
  HS02004777HS02004785 CONDUIT      8.02     0  02:42      0.08    0.01    0.15
  HS02004480HS02004478 CONDUIT     25.77     0  02:44      0.44    0.11    0.08
  HS02004479HS02004480 CONDUIT      3.81     0  02:47      0.16    0.00    0.15
  HS02004862HS02004870 CONDUIT      2.95     0  02:42      0.22    0.00    0.02
  HS02004848HS02004852 CONDUIT      0.79     0  02:41      0.12    0.00    0.01
  HS02004856HS02004862 CONDUIT      1.70     0  02:41      0.14    0.00    0.02
  HS02004852HS02004856 CONDUIT      0.78     0  02:44      0.02    0.00    0.06
  HS02004802HS02004478 CONDUIT     15.43     0  02:47      0.14    0.01    0.16
  HS02004478WS02006287 CONDUIT     41.18     0  02:44      0.62    0.01    0.07
  HS02004817HS02004807 CONDUIT     13.18     0  02:47      0.05    0.01    0.40
  HS02004807HS02004802 CONDUIT     15.42     0  02:44      0.19    0.03    0.19
  YS02001759YS02001757 CONDUIT     35.21     0  03:22      0.12    0.03    0.93
  YS02001762YS02001759 CONDUIT     22.40     0  03:22      0.17    0.03    0.86
  YS02001765YS02001762 CONDUIT     19.63     0  03:22      0.22    0.02    0.82
  YS02001770YS02001767 CONDUIT     18.64     0  03:21      0.23    0.07    0.75
  YS02001774YS02001770 CONDUIT      9.13     0  03:08      0.12    0.01    0.77
  YS02001779YS02001774 CONDUIT      5.47     0  03:16      0.02    0.00    0.69
  YS02001649YS02001757 CONDUIT     53.87     0  03:18      0.09    0.03    0.92
  YS02001767YS02001765 CONDUIT     22.16     0  03:22      0.25    0.03    0.77
  YS02006561YS02001783 CONDUIT     57.20     0  03:06      1.15    0.03    0.16
  YS02001783YS02001784 CONDUIT     57.18     0  03:07      0.72    0.08    0.22
  YS02001784YS02001785 CONDUIT     58.23     0  03:07      0.71    0.14    0.22
  YS02001788YS02001790 CONDUIT     58.35     0  03:08      1.16    0.04    0.16
  YS02001790YS02001791 CONDUIT     58.50     0  03:08      1.32    0.06    0.14
  YS02001791YS02001793 CONDUIT     58.50     0  03:09      2.35    0.03    0.10
  YS02001910YS02001907 CONDUIT     18.49     0  03:09      0.49    0.01    0.51
  YS02001786YS02001788 CONDUIT     58.28     0  03:08      1.01    0.11    0.17
  YS02001915YS02001910 CONDUIT     18.56     0  03:04      0.44    0.01    0.30
  YS02001918YS02001915 CONDUIT      7.68     0  03:07      0.44    0.00    0.12
  YS02001923YS02001920 CONDUIT      4.82     0  03:04      0.16    0.00    0.08
  YS02001926YS02001923 CONDUIT      4.79     0  03:04      0.24    0.01    0.06
  YS02001929YS02001926 CONDUIT      4.76     0  03:01      0.24    0.00    0.06
  YS02001920YS02001918 CONDUIT      7.69     0  03:06      0.23    0.01    0.09
  YS02001629YS02163301 CONDUIT     16.95     0  03:18      0.06    0.02    0.71
  YS02001619YS02001622 CONDUIT     10.95     0  03:17      0.39    0.02    0.33
  YS02001622YS02001625 CONDUIT     12.70     0  03:17      0.13    0.01    0.49
  YS02001625YS02001629 CONDUIT     14.44     0  03:18      0.09    0.01    0.48
  YS02163301YS02001633 CONDUIT     18.06     0  03:17      0.05    0.02    0.76
  YS02163601YS02164001 CONDUIT     32.97     0  03:18      0.07    0.03    0.81
  YS02164001YS02001641 CONDUIT     33.91     0  03:18      0.07    0.05    0.79
  YS02001641YS02001644 CONDUIT     33.01     0  03:18      0.08    0.11    0.81
  YS02001647YS02001649 CONDUIT     42.36     0  03:17      0.11    0.02    0.74
  YS02006553YS02006556 CONDUIT     39.46     0  03:09      0.18    0.03    0.59
  YS02006556YS02006558 CONDUIT     39.47     0  03:09      0.08    0.03    0.62
  YSB6556YSB1171       CONDUIT      2.22     0  01:37      0.03    0.00    0.42
  YS02001907YS02006553 CONDUIT     39.41     0  03:09      0.06    0.05    0.68
  YS02006558YS02006561 CONDUIT     57.20     0  03:06      1.43    0.13    0.20
  YS02001633YS02163601 CONDUIT     31.04     0  03:17      0.06    0.03    0.81
  YS02001644YS02001647 CONDUIT     43.36     0  03:17      0.11    0.03    0.72
  YS02001745YS02001748 CONDUIT     12.08     0  03:01      0.84    0.00    0.06
  YS02001748YS02001751 CONDUIT     12.16     0  03:01      0.71    0.01    0.26
  YS02001751YS02001754 CONDUIT     20.29     0  05:31      0.66    0.01    0.47
  YS02001754YS02001757 CONDUIT     29.33     0  05:26      0.33    0.01    0.81
  YS02001882YS02001884 CONDUIT      1.02     0  02:07      0.05    0.00    0.23
  YS02001884YS02001887 CONDUIT      3.21     0  02:10      0.04    0.00    0.32
  YS02001890YS02001895 CONDUIT     21.06     0  03:03      0.11    0.01    0.30
  YS02001895YS02001898 CONDUIT     21.02     0  03:04      0.30    0.04    0.16
  YS02001898YS02001901 CONDUIT     21.06     0  03:04      0.15    0.01    0.24
  YS02001901YS02001904 CONDUIT     20.97     0  03:05      0.17    0.03    0.29
  YS02001904YS02001907 CONDUIT     20.99     0  03:07      0.06    0.01    0.45
  YS02001887YS02001890 CONDUIT     21.23     0  03:00      0.10    0.04    0.38
  YS02001652YS02001649 CONDUIT     17.00     0  03:12      0.21    0.01    0.75
  YS02001655YS02001652 CONDUIT     17.04     0  03:12      0.70    0.01    0.51
  YS02001658YS02001655 CONDUIT     14.97     0  03:01      0.80    0.01    0.25
  YS02001661YS02001658 CONDUIT     14.98     0  03:01      0.86    0.01    0.06
  YS02001664YS02001661 CONDUIT     14.99     0  03:01      0.45    0.00    0.09
  YSB1154YSB6556       CONDUIT      2.10     0  02:39      0.19    0.00    0.31
  YSB1174YSB1171       CONDUIT      1.94     0  02:31      0.02    0.00    0.42
  YSB1171HS02004479    CONDUIT      3.78     0  02:45      0.54    0.00    0.31
  HS02004881HS02006253 CONDUIT      6.02     0  02:42      0.80    0.00    0.01
  YS02001793JiankangQianchi CONDUIT     58.50     0  03:09      7.98    0.00    0.50
  YS02001757CaochengTiaoxuchi CONDUIT     76.43     0  03:21      0.27    0.03    0.61
  WSF200WS02003060     CONDUIT    109.35     0  03:20      0.83    0.02    0.17
  1                    CONDUIT    325.58     0  03:24      2.43    0.11    0.23
  2                    CONDUIT      0.00     0  00:00      0.00    0.00    0.00
  3                    CONDUIT    250.55     0  00:00      8.26    0.40    0.46
  4                    CONDUIT      0.00     0  00:00      0.00    0.00    0.00
  CC-Pump-1            PUMP         0.00     0  00:00              0.00
  CC-Pump-2            PUMP         0.00     0  00:00              0.00
  JK-Pump-1            PUMP       300.00     0  00:00              1.00
  JK-Pump-2            PUMP        58.50     0  03:09              0.20
  XR-Pump-1            PUMP        95.00     0  00:00              1.00
  XR-Pump-2            PUMP        95.00     0  00:00              1.00
  XR-Pump-3            PUMP         0.00     0  00:00              0.00
  XR-Pump-4            PUMP        95.00     0  00:30              1.00
  
  
  ***************************
  Flow Classification Summary
  ***************************
  
  -------------------------------------------------------------------------------------
                      Adjusted    ---------- Fraction of Time in Flow Class ---------- 
                       /Actual         Up    Down  Sub   Sup   Up    Down  Norm  Inlet 
  Conduit               Length    Dry  Dry   Dry   Crit  Crit  Crit  Crit  Ltd   Ctrl  
  -------------------------------------------------------------------------------------
  WS02003066WSF200        1.00   0.25  0.00  0.00  0.00  0.75  0.00  0.00  0.76  0.00
  WS02006287WS02006284    1.00   0.16  0.06  0.00  0.67  0.11  0.00  0.00  0.81  0.00
  WS02006284WS02006280    1.00   0.19  0.00  0.00  0.00  0.00  0.00  0.81  0.00  0.00
  WS02006280WS02006229    1.00   0.19  0.00  0.00  0.00  0.00  0.00  0.81  0.00  0.00
  WS02006229WS02006228    1.00   0.00  0.00  0.00  0.94  0.00  0.00  0.06  0.00  0.00
  WS02006256WS02006235    1.00   0.00  0.00  0.00  0.99  0.01  0.00  0.00  0.00  0.00
  WS02006253WS02006251    1.00   0.12  0.05  0.00  0.82  0.00  0.01  0.00  0.00  0.00
  WS02006252WS02006251    1.00   1.00  0.00  0.00  0.00  0.00  0.00  0.00  0.00  0.00
  WS02006251WS02006249    1.00   0.00  0.00  0.00  1.00  0.00  0.00  0.00  0.98  0.00
  WS02006249WS02006248    1.00   0.00  0.09  0.00  0.00  0.00  0.91  0.00  0.00  0.00
  WS02006248WS02006247    1.00   0.10  0.00  0.00  0.90  0.00  0.00  0.01  0.87  0.00
  WS02006247WS02006245    1.00   0.08  0.00  0.00  0.91  0.00  0.00  0.00  0.00  0.00
  WS02006245WS02006243    1.00   0.05  0.02  0.00  0.63  0.00  0.00  0.30  0.01  0.00
  WS02006243WS02006242    1.00   0.03  0.02  0.00  0.95  0.00  0.00  0.00  0.97  0.00
  WS02006242WS02006240    1.00   0.02  0.00  0.00  0.98  0.00  0.00  0.00  0.00  0.00
  WS02006240WS02006239    1.00   0.01  0.00  0.00  0.79  0.00  0.00  0.20  0.02  0.00
  WS02006239WS02006238    1.00   0.00  0.00  0.00  1.00  0.00  0.00  0.00  0.02  0.00
  WS02006238WS02006235    1.00   0.00  0.00  0.00  0.99  0.01  0.00  0.00  0.00  0.00
  WS02006235WS02006234    1.00   0.00  0.00  0.00  0.78  0.00  0.22  0.00  0.00  0.00
  WS02006234WS02006232    1.00   0.00  0.00  0.00  0.99  0.01  0.00  0.00  0.20  0.00
  WS02006232WS02006231    1.00   0.00  0.01  0.00  0.97  0.00  0.02  0.00  0.00  0.00
  WS02006231WS02006230    1.00   0.01  0.00  0.00  0.00  0.00  0.98  0.00  0.00  0.00
  WS02006230WS02006229    1.00   0.00  0.00  0.00  0.94  0.00  0.00  0.06  0.01  0.00
  WS02006228WS02006109    1.00   0.00  0.00  0.00  0.98  0.00  0.00  0.01  0.00  0.00
  WS02006116WS02004401    1.00   0.11  0.00  0.00  0.89  0.00  0.00  0.00  0.00  0.00
  WS02006115WS02006116    1.00   0.11  0.00  0.00  0.87  0.00  0.00  0.02  0.00  0.00
  WS02006113WS02006111    1.00   0.08  0.00  0.00  0.01  0.91  0.00  0.00  0.01  0.00
  WS02006112WS02006115    1.00   0.09  0.01  0.00  0.89  0.00  0.00  0.00  0.00  0.00
  WS02006111WS02006112    1.00   0.09  0.00  0.00  0.90  0.00  0.00  0.01  0.98  0.00
  WS02006110WS02006113    1.00   0.05  0.04  0.00  0.92  0.00  0.00  0.00  0.00  0.00
  WS02006109WS02006110    1.00   0.00  0.05  0.00  0.92  0.00  0.03  0.00  0.00  0.00
  WS02004411WS02004412    1.00   0.16  0.00  0.00  0.84  0.00  0.00  0.00  0.00  0.00
  WS02004401WS02004402    1.00   0.11  0.00  0.00  0.89  0.00  0.00  0.00  0.00  0.00
  WS02004413WS02003067    1.00   0.17  0.06  0.00  0.00  0.00  0.77  0.00  0.00  0.00
  WS02004412WS02004413    1.00   0.17  0.00  0.00  0.83  0.00  0.00  0.00  0.03  0.00
  WS02004410WS02004411    1.00   0.16  0.00  0.00  0.84  0.00  0.00  0.00  0.04  0.00
  WS02004409WS02004410    1.00   0.16  0.00  0.00  0.84  0.00  0.00  0.00  0.04  0.00
  WS02004407WS02004409    1.00   0.16  0.00  0.00  0.83  0.01  0.00  0.00  0.89  0.00
  WS02004406WS02004407    1.00   0.00  0.16  0.00  0.84  0.00  0.00  0.00  0.00  0.00
  WS02004405WS02004406    1.00   0.00  0.00  0.00  1.00  0.00  0.00  0.00  0.00  0.00
  WS02004404WS02004405    1.00   0.00  0.00  0.00  1.00  0.00  0.00  0.00  0.00  0.00
  WS02004403WS02004404    1.00   0.00  0.11  0.00  0.89  0.00  0.00  0.00  0.01  0.00
  WS02004402WS02004403    1.00   0.11  0.00  0.00  0.89  0.00  0.00  0.00  0.00  0.00
  WS02004139WS02001211    1.00   0.00  0.00  0.00  0.98  0.00  0.02  0.00  0.00  0.00
  WS02004138WS02004139    1.00   0.00  0.00  0.00  0.96  0.03  0.00  0.01  1.00  0.00
  WS02003067WS02003066    1.00   0.23  0.02  0.00  0.75  0.00  0.00  0.00  0.00  0.00
  WS02001213WS02003059    1.00   0.01  0.02  0.00  0.97  0.00  0.00  0.00  0.00  0.00
  WS02001212WS02001213    1.00   0.02  0.01  0.00  0.00  0.00  0.97  0.00  0.00  0.00
  WS02001211WS02001212    1.00   0.00  0.02  0.00  0.98  0.00  0.00  0.00  0.00  0.00
  WS02003072WS02003073    1.00   0.00  0.00  0.00  0.00  0.00  0.00  1.00  0.00  0.00
  WS02003069WS02003072    1.00   0.00  0.00  0.00  0.98  0.02  0.00  0.00  0.98  0.00
  WS02003060WS02003069    1.00   0.00  0.00  0.00  0.94  0.06  0.00  0.00  0.38  0.00
  WS02003059WS02003060    1.00   0.00  0.00  0.00  0.98  0.02  0.00  0.00  0.01  0.00
  HS02004901HS02004770    1.00   0.18  0.00  0.00  0.81  0.00  0.00  0.00  0.04  0.00
  HS02004876HS02004881    1.00   0.10  0.00  0.00  0.90  0.00  0.00  0.00  0.00  0.00
  HS02004870HS02004876    1.00   0.02  0.00  0.00  0.97  0.01  0.00  0.00  0.95  0.00
  HS02004842HS02004848    1.00   0.00  0.19  0.00  0.81  0.00  0.00  0.00  0.80  0.00
  HS02004837HS02004842    1.00   0.00  0.00  0.00  0.97  0.03  0.00  0.00  0.11  0.00
  HS02004830HS02004837    1.00   0.00  0.00  0.00  0.99  0.01  0.00  0.00  0.99  0.00
  HS02004824HS02004830    1.00   0.00  0.00  0.00  1.00  0.00  0.00  0.00  0.00  0.00
  HS02004817HS02004824    1.00   0.00  0.00  0.00  1.00  0.00  0.00  0.00  1.00  0.00
  HS02004770HS02004777    1.00   0.00  0.19  0.00  0.81  0.00  0.00  0.00  0.08  0.00
  HS02004799HS02004480    1.00   0.01  0.10  0.00  0.76  0.00  0.13  0.00  0.00  0.00
  HS02004792HS02004799    1.00   0.00  0.00  0.00  0.94  0.06  0.00  0.00  0.98  0.00
  HS02004788HS02004792    1.00   0.00  0.00  0.00  0.95  0.05  0.00  0.00  0.98  0.00
  HS02004785HS02004788    1.00   0.00  0.00  0.00  1.00  0.00  0.00  0.00  0.00  0.00
  HS02004777HS02004785    1.00   0.00  0.00  0.00  1.00  0.00  0.00  0.00  0.23  0.00
  HS02004480HS02004478    1.00   0.20  0.00  0.00  0.65  0.00  0.00  0.15  0.00  0.00
  HS02004479HS02004480    1.00   0.11  0.00  0.00  0.89  0.00  0.00  0.00  0.17  0.00
  HS02004862HS02004870    1.00   0.00  0.00  0.00  1.00  0.00  0.00  0.00  0.06  0.00
  HS02004848HS02004852    1.00   0.19  0.00  0.00  0.81  0.00  0.00  0.00  0.66  0.00
  HS02004856HS02004862    1.00   0.00  0.31  0.00  0.69  0.00  0.00  0.00  0.71  0.00
  HS02004852HS02004856    1.00   0.18  0.04  0.00  0.78  0.00  0.00  0.00  0.81  0.00
  HS02004802HS02004478    1.00   0.19  0.03  0.00  0.78  0.00  0.00  0.00  0.00  0.00
  HS02004478WS02006287    1.00   0.22  0.00  0.00  0.77  0.00  0.00  0.00  0.81  0.00
  HS02004817HS02004807    1.00   0.00  0.19  0.00  0.81  0.00  0.00  0.00  0.00  0.00
  HS02004807HS02004802    1.00   0.19  0.00  0.00  0.80  0.00  0.00  0.01  0.01  0.00
  YS02001759YS02001757    1.00   0.00  0.00  0.00  1.00  0.00  0.00  0.00  0.17  0.00
  YS02001762YS02001759    1.00   0.00  0.01  0.00  0.99  0.00  0.00  0.00  0.06  0.00
  YS02001765YS02001762    1.00   0.00  0.00  0.00  1.00  0.00  0.00  0.00  0.24  0.00
  YS02001770YS02001767    1.00   0.00  0.00  0.00  1.00  0.00  0.00  0.00  0.00  0.00
  YS02001774YS02001770    1.00   0.01  0.22  0.00  0.77  0.00  0.00  0.00  0.07  0.00
  YS02001779YS02001774    1.00   0.00  0.00  0.00  1.00  0.00  0.00  0.00  0.31  0.00
  YS02001649YS02001757    1.00   0.00  0.00  0.00  1.00  0.00  0.00  0.00  0.20  0.00
  YS02001767YS02001765    1.00   0.00  0.00  0.00  1.00  0.00  0.00  0.00  0.01  0.00
  YS02006561YS02001783    1.00   0.30  0.00  0.00  0.00  0.69  0.00  0.00  0.70  0.00
  YS02001783YS02001784    1.00   0.00  0.31  0.00  0.69  0.00  0.00  0.00  0.54  0.00
  YS02001784YS02001785    1.00   0.00  0.00  0.00  1.00  0.00  0.00  0.00  0.28  0.00
  YS02001788YS02001790    1.00   0.00  0.00  0.00  0.32  0.68  0.00  0.00  1.00  0.00
  YS02001790YS02001791    1.00   0.00  0.00  0.00  0.07  0.93  0.00  0.00  0.00  0.00
  YS02001791YS02001793    1.00   0.00  0.00  0.00  0.00  1.00  0.00  0.00  0.00  0.00
  YS02001910YS02001907    1.00   0.00  0.00  0.00  0.89  0.00  0.00  0.10  0.13  0.00
  YS02001786YS02001788    1.00   0.00  0.00  0.00  0.74  0.26  0.00  0.00  0.00  0.00
  YS02001915YS02001910    1.00   0.00  0.00  0.00  0.96  0.04  0.00  0.00  0.27  0.00
  YS02001918YS02001915    1.00   0.00  0.03  0.00  0.91  0.06  0.00  0.00  0.79  0.00
  YS02001923YS02001920    1.00   0.00  0.00  0.00  1.00  0.00  0.00  0.00  1.00  0.00
  YS02001926YS02001923    1.00   0.00  0.14  0.00  0.00  0.00  0.86  0.00  0.00  0.00
  YS02001929YS02001926    1.00   0.00  0.18  0.00  0.82  0.00  0.00  0.00  0.86  0.00
  YS02001920YS02001918    1.00   0.00  0.02  0.00  0.98  0.00  0.00  0.00  0.00  0.00
  YS02001629YS02163301    1.00   0.26  0.02  0.00  0.72  0.00  0.00  0.00  0.00  0.00
  YS02001619YS02001622    1.00   0.18  0.00  0.00  0.82  0.00  0.00  0.00  0.00  0.00
  YS02001622YS02001625    1.00   0.19  0.00  0.00  0.81  0.00  0.00  0.00  0.17  0.00
  YS02001625YS02001629    1.00   0.19  0.14  0.00  0.58  0.00  0.09  0.00  0.00  0.00
  YS02163301YS02001633    1.00   0.00  0.26  0.00  0.74  0.00  0.00  0.00  0.00  0.00
  YS02163601YS02164001    1.00   0.00  0.15  0.00  0.85  0.00  0.00  0.00  0.00  0.00
  YS02164001YS02001641    1.00   0.04  0.11  0.00  0.85  0.00  0.00  0.00  0.07  0.00
  YS02001641YS02001644    1.00   0.00  0.03  0.00  0.97  0.00  0.00  0.00  0.00  0.00
  YS02001647YS02001649    1.00   0.00  0.30  0.00  0.69  0.00  0.00  0.00  0.01  0.00
  YS02006553YS02006556    1.00   0.06  0.00  0.00  0.94  0.00  0.00  0.00  0.03  0.00
  YS02006556YS02006558    1.00   0.00  0.01  0.00  0.99  0.00  0.00  0.00  0.00  0.00
  YSB6556YSB1171          1.00   0.12  0.06  0.00  0.82  0.00  0.00  0.00  0.00  0.00
  YS02001907YS02006553    1.00   0.01  0.09  0.00  0.90  0.00  0.00  0.00  0.00  0.00
  YS02006558YS02006561    1.00   0.30  0.00  0.00  0.00  0.69  0.00  0.00  0.49  0.00
  YS02001633YS02163601    1.00   0.00  0.03  0.00  0.97  0.00  0.00  0.00  0.20  0.00
  YS02001644YS02001647    1.00   0.00  0.31  0.00  0.69  0.00  0.00  0.00  0.00  0.00
  YS02001745YS02001748    1.00   0.00  0.00  0.00  0.13  0.03  0.00  0.84  0.19  0.00
  YS02001748YS02001751    1.00   0.00  0.00  0.00  0.86  0.14  0.00  0.00  0.48  0.00
  YS02001751YS02001754    1.00   0.00  0.00  0.00  0.66  0.00  0.00  0.34  0.06  0.00
  YS02001754YS02001757    1.00   0.00  0.00  0.00  0.97  0.03  0.00  0.00  0.30  0.00
  YS02001882YS02001884    1.00   0.25  0.02  0.00  0.73  0.00  0.00  0.00  0.00  0.00
  YS02001884YS02001887    1.00   0.13  0.04  0.00  0.83  0.00  0.00  0.00  0.00  0.00
  YS02001890YS02001895    1.00   0.01  0.27  0.00  0.72  0.00  0.00  0.00  0.00  0.00
  YS02001895YS02001898    1.00   0.28  0.01  0.00  0.69  0.00  0.03  0.00  0.00  0.00
  YS02001898YS02001901    1.00   0.26  0.03  0.00  0.72  0.00  0.00  0.00  0.02  0.00
  YS02001901YS02001904    1.00   0.26  0.00  0.00  0.74  0.00  0.00  0.00  0.00  0.00
  YS02001904YS02001907    1.00   0.01  0.25  0.00  0.74  0.00  0.00  0.00  0.00  0.00
  YS02001887YS02001890    1.00   0.00  0.01  0.00  0.89  0.00  0.10  0.00  0.00  0.00
  YS02001652YS02001649    1.00   0.00  0.00  0.00  1.00  0.00  0.00  0.00  0.30  0.00
  YS02001655YS02001652    1.00   0.00  0.00  0.00  0.66  0.00  0.00  0.33  0.06  0.00
  YS02001658YS02001655    1.00   0.00  0.24  0.00  0.62  0.14  0.00  0.00  0.56  0.00
  YS02001661YS02001658    1.00   0.24  0.00  0.00  0.18  0.59  0.00  0.00  0.74  0.00
  YS02001664YS02001661    1.00   0.18  0.00  0.00  0.82  0.00  0.00  0.00  0.86  0.00
  YSB1154YSB6556          1.00   0.18  0.00  0.00  0.82  0.00  0.00  0.00  0.02  0.00
  YSB1174YSB1171          1.00   0.12  0.03  0.00  0.84  0.00  0.00  0.00  0.00  0.00
  YSB1171HS02004479       1.00   0.12  0.00  0.00  0.87  0.00  0.00  0.01  0.13  0.00
  HS02004881HS02006253    1.00   0.13  0.00  0.00  0.00  0.00  0.00  0.87  0.00  0.00
  YS02001793JiankangQianchi    1.00   0.00  0.01  0.00  0.09  0.90  0.00  0.00  0.02  0.00
  YS02001757CaochengTiaoxuchi    1.00   0.00  0.43  0.00  0.57  0.00  0.00  0.00  0.00  0.00
  WSF200WS02003060        1.00   0.00  0.25  0.00  0.75  0.00  0.00  0.00  0.77  0.00
  1                       1.00   0.00  0.00  0.00  0.00  1.00  0.00  0.00  0.03  0.00
  2                       1.00   1.00  0.00  0.00  0.00  0.00  0.00  0.00  0.00  0.00
  3                       1.00   0.90  0.00  0.00  0.00  0.10  0.00  0.00  0.98  0.00
  4                       1.00   1.00  0.00  0.00  0.00  0.00  0.00  0.00  0.00  0.00
  
  
  *************************
  Conduit Surcharge Summary
  *************************
  
  ----------------------------------------------------------------------------
                                                           Hours        Hours 
                         --------- Hours Full --------   Above Full   Capacity
  Conduit                Both Ends  Upstream  Dnstream   Normal Flow   Limited
  ----------------------------------------------------------------------------
  WS02006256WS02006235        0.12      0.12      6.15      0.16         0.01
  WS02006235WS02006234        0.01      0.01      0.01      0.13         0.01
  WS02006231WS02006230        0.01      0.01      0.01      0.15         0.01
  WS02006230WS02006229        0.01      0.01      0.01      2.92         0.01
  WS02004404WS02004405        0.01      0.01      0.01      0.51         0.01
  YS02001793JiankangQianchi        0.01      0.01      0.09      0.01         0.01
  
  
  ***************
  Pumping Summary
  ***************
  
  ---------------------------------------------------------------------------------------------------------
                                                  Min       Avg       Max     Total     Power    % Time Off
                        Percent   Number of      Flow      Flow      Flow    Volume     Usage    Pump Curve
  Pump                 Utilized   Start-Ups       LPS       LPS       LPS  10^6 ltr     Kw-hr    Low   High
  ---------------------------------------------------------------------------------------------------------
  CC-Pump-1                0.00           0      0.00      0.00      0.00     0.000      0.00    0.0    0.0
  CC-Pump-2                0.00           0      0.00      0.00      0.00     0.000      0.00    0.0    0.0
  JK-Pump-1                6.40           1      0.00    223.80    300.00     0.180      2.81    0.0    0.0
  JK-Pump-2               95.73           1      0.00     28.70     58.50     0.710     12.81    0.0    0.0
  XR-Pump-1                6.40           1      0.00     89.60     95.00     0.143      1.68    0.0    0.0
  XR-Pump-2              100.00           1      0.00     95.00     95.00     2.679     19.37    0.0    0.0
  XR-Pump-3                0.00           0      0.00      0.00      0.00     0.000      0.00    0.0    0.0
  XR-Pump-4               95.73           1      0.00     94.19     95.00     2.536     17.70    0.0    0.0
  

  Analysis begun on:  Thu Jan  6 00:25:52 2022
  Analysis ended on:  Thu Jan  6 00:25:53 2022
  Total elapsed time: 00:00:01