
  EPA STORM WATER MANAGEMENT MODEL - VERSION 5.1 (Build 5.3.0.dev0)
  --------------------------------------------------------------

  WARNING 04: minimum elevation drop used for Conduit WS02004404WS02004405
  WARNING 03: negative offset ignored for Link YS02001904YS02001907
  
  *********************************************************
  NOTE: The summary statistics displayed in this report are
  based on results found at every computational time step,  
  not just on results from each reporting time step.
  *********************************************************
  
  ****************
  Analysis Options
  ****************
  Flow Units ............... LPS
  Process Models:
    Rainfall/Runoff ........ YES
    RDII ................... NO
    Snowmelt ............... NO
    Groundwater ............ NO
    Flow Routing ........... YES
    Ponding Allowed ........ NO
    Water Quality .......... NO
  Infiltration Method ...... HORTON
  Flow Routing Method ...... DYNWAVE
  Surcharge Method ......... EXTRAN
  Starting Date ............ 08/28/2015 08:00:00
  Ending Date .............. 08/28/2015 15:50:00
  Antecedent Dry Days ...... 8.0
  Report Time Step ......... 00:01:00
  Wet Time Step ............ 00:01:00
  Dry Time Step ............ 00:01:00
  Routing Time Step ........ 5.00 sec
  Variable Time Step ....... YES
  Maximum Trials ........... 8
  Number of Threads ........ 4
  Head Tolerance ........... 0.001500 m
  
  
  **************************        Volume         Depth
  Runoff Quantity Continuity     hectare-m            mm
  **************************     ---------       -------
  Total Precipitation ......         2.495         5.462
  Evaporation Loss .........         0.000         0.000
  Infiltration Loss ........         0.624         1.367
  Surface Runoff ...........         1.004         2.198
  Final Storage ............         0.867         1.898
  Continuity Error (%) .....        -0.018
  
  
  **************************        Volume        Volume
  Flow Routing Continuity        hectare-m      10^6 ltr
  **************************     ---------     ---------
  Dry Weather Inflow .......         0.616         6.165
  Wet Weather Inflow .......         1.003        10.034
  Groundwater Inflow .......         0.000         0.000
  RDII Inflow ..............         0.000         0.000
  External Inflow ..........         0.102         1.024
  External Outflow .........         0.998         9.982
  Flooding Loss ............         0.179         1.789
  Evaporation Loss .........         0.000         0.000
  Exfiltration Loss ........         0.000         0.000
  Initial Stored Volume ....         0.076         0.761
  Final Stored Volume ......         0.622         6.216
  Continuity Error (%) .....        -0.019
  
  
  *************************
  Highest Continuity Errors
  *************************
  Node HS02004842 (30.09%)
  Node YS02001774 (25.92%)
  Node YS02001884 (24.58%)
  Node YSB1171 (7.64%)
  Node YS02001625 (6.42%)
  
  
  ***************************
  Time-Step Critical Elements
  ***************************
  Link 3 (64.00%)
  Link YS02001793JiankangQianchi (23.50%)
  Link WS02006280WS02006229 (4.51%)
  Link WS02006256WS02006235 (1.04%)
  
  
  ********************************
  Highest Flow Instability Indexes
  ********************************
  Link WS02006113WS02006111 (59)
  Link WS02006111WS02006112 (27)
  Link YS02001641YS02001644 (10)
  Link YS02001629YS02163301 (10)
  Link YS02164001YS02001641 (10)
  
  
  *************************
  Routing Time Step Summary
  *************************
  Minimum Time Step           :     0.52 sec
  Average Time Step           :     1.75 sec
  Maximum Time Step           :     5.00 sec
  Percent in Steady State     :     0.00
  Average Iterations per Step :     2.99
  Percent Not Converging      :    10.16
  
  
  ***************************
  Subcatchment Runoff Summary
  ***************************
  
  ------------------------------------------------------------------------------------------------------------------------------
                            Total      Total      Total      Total     Imperv       Perv      Total       Total     Peak  Runoff
                           Precip      Runon       Evap      Infil     Runoff     Runoff     Runoff      Runoff   Runoff   Coeff
  Subcatchment                 mm         mm         mm         mm         mm         mm         mm    10^6 ltr      LPS
  ------------------------------------------------------------------------------------------------------------------------------
  sub0                       5.46       0.00       0.00       0.38       3.81       0.00       3.81        0.00     1.22   0.698
  sub1                       5.46       0.00       0.00       0.60       3.61       0.00       3.61        0.02     6.40   0.660
  sub2                       5.46       0.00       0.00       2.02       2.54       0.00       2.54        0.02     5.67   0.464
  sub3                       5.46       0.00       0.00       2.02       2.50       0.00       2.50        0.06    11.67   0.458
  sub4                       5.46       0.00       0.00       0.60       3.47       0.00       3.47        0.07    13.12   0.635
  sub5                       5.46       0.00       0.00       0.38       3.77       0.00       3.77        0.04    11.38   0.690
  sub7                       5.46       0.00       0.00       0.49       3.72       0.00       3.72        0.01     4.02   0.680
  sub8                       5.46       0.00       0.00       0.49       3.71       0.00       3.71        0.02     7.09   0.679
  sub9                       5.46       0.00       0.00       0.49       3.70       0.00       3.70        0.02     5.25   0.678
  sub10                      5.46       0.00       0.00       0.44       3.73       0.00       3.73        0.04    11.36   0.684
  sub11                      5.46       0.00       0.00       0.44       3.75       0.00       3.75        0.04    13.33   0.687
  sub12                      5.46       0.00       0.00       0.71       3.56       0.00       3.56        0.03    11.29   0.652
  sub14                      5.46       0.00       0.00       0.49       3.70       0.00       3.70        0.04    10.26   0.678
  sub15                      5.46       0.00       0.00       1.64       2.85       0.00       2.85        0.05    13.93   0.521
  sub16                      5.46       0.00       0.00       1.80       2.74       0.00       2.74        0.03     9.93   0.502
  sub17                      5.46       0.00       0.00       1.75       2.78       0.00       2.78        0.02     8.02   0.509
  sub22                      5.46       0.00       0.00       2.35       2.32       0.00       2.32        0.15    45.61   0.426
  sub23                      5.46       0.00       0.00       2.02       2.57       0.00       2.57        0.12    38.85   0.471
  sub60                      5.46       0.00       0.00       0.66       2.43       0.00       2.43        0.74    67.28   0.446
  sub61                      5.46       0.00       0.00       0.93       2.62       0.00       2.62        0.81    84.42   0.480
  sub62                      5.46       0.00       0.00       0.44       2.81       0.00       2.81        0.86    86.35   0.514
  sub63                      5.46       0.00       0.00       1.58       2.34       0.00       2.34        0.71    78.70   0.429
  sub64                      5.46       0.00       0.00       0.82       2.33       0.00       2.33        0.71    63.86   0.426
  sub65                      5.46       0.00       0.00       0.71       2.35       0.00       2.35        0.72    64.75   0.431
  sub66                      5.46       0.00       0.00       1.58       2.03       0.00       2.03        0.62    58.67   0.373
  sub67                      5.46       0.00       0.00       0.44       3.11       0.00       3.11        0.96   110.55   0.569
  sub68                      5.46       0.00       0.00       0.76       2.80       0.00       2.80        0.86    93.27   0.512
  sub69                      5.46       0.00       0.00       0.82       3.04       0.00       3.04        0.71    92.37   0.557
  sub70                      5.46       3.10       0.00       2.91       3.68       0.00       3.68        0.84    73.56   0.429
  sub71                      5.46       0.00       0.00       0.44       2.68       0.00       2.68        0.63    60.33   0.490
  sub72                      5.46       0.00       0.00       0.38       1.86       0.00       1.86        0.38    28.02   0.340
  sub73                      5.46       3.58       0.00       3.07       3.70       0.00       3.70        0.87    62.93   0.409
  sub74                      5.46       0.00       0.00       4.10       0.92       0.00       0.92        0.37    51.48   0.168
  
  
  ******************
  Node Depth Summary
  ******************
  
  ---------------------------------------------------------------------------------
                                 Average  Maximum  Maximum  Time of Max    Reported
                                   Depth    Depth      HGL   Occurrence   Max Depth
  Node                 Type       Meters   Meters   Meters  days hr:min      Meters
  ---------------------------------------------------------------------------------
  WS02001211           JUNCTION     0.60     0.62     5.46     0  02:44        0.62
  WS02001212           JUNCTION     0.33     0.35     5.41     0  02:43        0.35
  WS02001213           JUNCTION     0.53     0.59     5.35     0  02:42        0.59
  WS02003069           JUNCTION     0.34     0.43     5.01     0  02:41        0.43
  WS02003072           JUNCTION     0.40     0.50     4.87     0  02:42        0.50
  WS02003073           JUNCTION     0.24     0.30     4.36     0  02:43        0.30
  WS02003060           JUNCTION     0.30     0.38     5.31     0  02:40        0.38
  WS02003066           JUNCTION     0.17     0.25     5.80     0  02:38        0.25
  WS02003059           JUNCTION     0.59     0.66     5.34     0  02:42        0.66
  WS02003067           JUNCTION     0.45     0.61     5.93     0  02:38        0.61
  WS02004401           JUNCTION     0.52     0.70     6.70     0  02:34        0.70
  WS02004402           JUNCTION     0.55     0.73     6.69     0  02:34        0.73
  WS02004403           JUNCTION     0.58     0.75     6.68     0  02:34        0.75
  WS02004404           JUNCTION     0.65     0.83     6.68     0  02:34        0.83
  WS02004406           JUNCTION     0.67     0.84     6.67     0  02:34        0.84
  WS02004409           JUNCTION     0.33     0.51     6.28     0  02:37        0.51
  WS02004410           JUNCTION     0.36     0.54     6.26     0  02:37        0.54
  WS02004411           JUNCTION     0.38     0.55     6.23     0  02:38        0.55
  WS02004412           JUNCTION     0.40     0.57     6.21     0  02:38        0.57
  WS02004413           JUNCTION     0.55     0.74     6.21     0  02:38        0.74
  WS02004405           JUNCTION     0.65     0.82     6.67     0  02:34        0.82
  WS02006109           JUNCTION     0.57     0.77     7.39     0  02:28        0.77
  WS02006110           JUNCTION     0.59     0.77     7.35     0  02:28        0.76
  WS02006111           JUNCTION     0.15     0.23     6.93     0  02:28        0.23
  WS02006112           JUNCTION     0.66     0.87     6.75     0  02:33        0.87
  WS02006113           JUNCTION     0.23     0.35     7.24     0  02:28        0.35
  WS02006115           JUNCTION     0.40     0.58     6.72     0  02:33        0.58
  WS02006116           JUNCTION     0.49     0.67     6.71     0  02:33        0.67
  WS02006230           JUNCTION     0.48     0.69     7.44     0  02:28        0.69
  WS02006231           JUNCTION     0.29     0.38     7.50     0  02:31        0.38
  WS02006232           JUNCTION     0.41     0.50     7.54     0  02:32        0.50
  WS02006234           JUNCTION     0.30     0.40     7.55     0  02:32        0.40
  WS02006235           JUNCTION     0.33     0.42     7.58     0  02:32        0.42
  WS02006238           JUNCTION     0.35     0.44     7.58     0  02:32        0.44
  WS02006240           JUNCTION     0.21     0.29     7.59     0  02:33        0.29
  WS02006242           JUNCTION     0.23     0.32     7.59     0  02:32        0.32
  WS02006243           JUNCTION     0.10     0.17     7.59     0  02:32        0.17
  WS02006245           JUNCTION     0.07     0.15     7.64     0  02:25        0.15
  WS02006247           JUNCTION     0.08     0.18     7.68     0  02:23        0.18
  WS02006248           JUNCTION     0.05     0.13     7.72     0  02:22        0.13
  WS02006249           JUNCTION     0.08     0.18     7.78     0  02:21        0.18
  WS02006239           JUNCTION     0.28     0.38     7.58     0  02:32        0.38
  WS02006251           JUNCTION     0.06     0.15     7.82     0  02:20        0.15
  WS02006252           JUNCTION     0.00     0.00     8.24     0  00:00        0.00
  WS02006253           JUNCTION     0.10     0.21     7.85     0  02:20        0.21
  WS02006256           JUNCTION     0.91     1.15     8.09     0  00:00        1.10
  WS02004138           JUNCTION     0.14     0.14     7.39     0  00:00        0.14
  WS02004407           JUNCTION     0.15     0.23     6.55     0  02:34        0.23
  WS02006228           JUNCTION     0.55     0.76     7.41     0  02:28        0.76
  WS02006229           JUNCTION     0.52     0.73     7.42     0  02:27        0.73
  WS02006280           JUNCTION     0.06     0.14     8.41     0  02:20        0.14
  WS02006284           JUNCTION     0.35     0.47     8.87     0  02:20        0.47
  WS02006287           JUNCTION     0.09     0.20     9.15     0  02:20        0.20
  WSF200               JUNCTION     0.15     0.24     5.47     0  02:38        0.24
  HS02004901           JUNCTION     0.11     0.22    10.04     0  02:17        0.22
  HS02004881           JUNCTION     0.01     0.02     9.05     0  02:19        0.02
  HS02004876           JUNCTION     0.04     0.10     9.13     0  02:19        0.10
  HS02004870           JUNCTION     0.01     0.04     9.32     0  02:20        0.04
  HS02004862           JUNCTION     0.02     0.04     9.43     0  02:21        0.04
  HS02004856           JUNCTION     0.07     0.10     9.53     0  02:20        0.10
  HS02004852           JUNCTION     0.01     0.02     9.54     0  02:21        0.02
  HS02004848           JUNCTION     0.01     0.02     9.63     0  02:19        0.02
  HS02004842           JUNCTION     0.32     0.36     9.63     0  02:19        0.36
  HS02004837           JUNCTION     0.03     0.04     9.62     0  02:19        0.04
  HS02004830           JUNCTION     0.04     0.06     9.53     0  02:20        0.06
  HS02004824           JUNCTION     0.02     0.04     9.44     0  02:23        0.04
  HS02004817           JUNCTION     0.41     0.51     9.36     0  02:20        0.51
  HS02004807           JUNCTION     0.11     0.19     9.36     0  02:20        0.19
  HS02004802           JUNCTION     0.15     0.23     9.35     0  02:20        0.23
  HS02004799           JUNCTION     0.11     0.24     9.45     0  02:18        0.24
  HS02004792           JUNCTION     0.03     0.09     9.61     0  02:17        0.09
  HS02004788           JUNCTION     0.02     0.07     9.96     0  02:18        0.07
  HS02004785           JUNCTION     0.04     0.12    10.03     0  02:18        0.12
  HS02004777           JUNCTION     0.13     0.24    10.04     0  02:18        0.24
  HS02004770           JUNCTION     0.11     0.21    10.04     0  02:18        0.21
  HS02004480           JUNCTION     0.07     0.18     9.42     0  02:18        0.18
  HS02004479           JUNCTION     0.11     0.22     9.43     0  02:18        0.22
  HS02004478           JUNCTION     0.05     0.12     9.34     0  02:19        0.12
  YS02001745           JUNCTION     0.29     0.84     8.36     0  06:28        0.84
  YS02001748           JUNCTION     0.58     1.28     8.36     0  06:28        1.28
  YS02001751           JUNCTION     0.74     1.48     8.36     0  06:28        1.48
  YS02001754           JUNCTION     0.97     1.75     8.36     0  06:28        1.75
  YS02001762           JUNCTION     1.15     1.96     8.36     0  06:28        1.96
  YS02001765           JUNCTION     1.11     1.91     8.36     0  06:28        1.91
  YS02001767           JUNCTION     1.08     1.87     8.36     0  06:28        1.87
  YS02001770           JUNCTION     1.07     1.86     8.36     0  06:28        1.86
  YS02001774           JUNCTION     1.13     1.94     8.36     0  06:28        1.94
  YS02001779           JUNCTION     0.90     1.67     8.36     0  06:28        1.67
  YS02001882           JUNCTION     0.28     0.43     7.14     0  02:58        0.43
  YS02001884           JUNCTION     0.37     0.53     7.14     0  02:58        0.52
  YS02001759           JUNCTION     1.18     1.99     8.36     0  06:28        1.99
  YS02001887           JUNCTION     0.45     0.60     7.14     0  02:58        0.60
  YS02001890           JUNCTION     0.47     0.63     7.14     0  02:58        0.63
  YS02001898           JUNCTION     0.25     0.39     7.12     0  02:59        0.39
  YS02001901           JUNCTION     0.36     0.52     7.12     0  03:00        0.52
  YS02001904           JUNCTION     0.34     0.49     7.12     0  03:00        0.49
  YS02001907           JUNCTION     0.66     0.83     7.12     0  02:59        0.83
  YS02001910           JUNCTION     0.46     0.62     7.12     0  02:59        0.62
  YS02001915           JUNCTION     0.27     0.40     7.12     0  02:59        0.40
  YS02001918           JUNCTION     0.07     0.09     7.16     0  03:03        0.09
  YS02001619           JUNCTION     0.71     1.42     8.35     0  06:18        1.42
  YS02001629           JUNCTION     1.02     1.80     8.35     0  06:18        1.80
  YS02001641           JUNCTION     1.12     1.92     8.35     0  06:18        1.92
  YS02001644           JUNCTION     1.13     1.92     8.35     0  06:18        1.92
  YS02001652           JUNCTION     0.98     1.76     8.36     0  06:29        1.76
  YS02001655           JUNCTION     0.77     1.51     8.36     0  06:29        1.51
  YS02001920           JUNCTION     0.17     0.20     7.20     0  03:03        0.20
  YS02001923           JUNCTION     0.06     0.08     7.34     0  03:02        0.08
  YS02001926           JUNCTION     0.13     0.17     7.61     0  03:01        0.17
  YS02001929           JUNCTION     0.06     0.08     7.77     0  03:01        0.08
  YS02001658           JUNCTION     0.53     1.21     8.36     0  06:29        1.21
  YS02001661           JUNCTION     0.38     0.95     8.36     0  06:29        0.95
  YS02001664           JUNCTION     0.14     0.43     8.36     0  06:29        0.43
  YS02001622           JUNCTION     0.72     1.45     8.35     0  06:18        1.45
  YS02001633           JUNCTION     1.11     1.90     8.35     0  06:18        1.90
  YS02001649           JUNCTION     1.16     1.97     8.36     0  06:28        1.97
  YS02001757           JUNCTION     1.28     2.10     8.36     0  06:28        2.10
  YS02001895           JUNCTION     0.25     0.39     7.13     0  02:58        0.39
  YS02001625           JUNCTION     0.98     1.75     8.35     0  06:18        1.75
  YS02163301           JUNCTION     1.05     1.84     8.35     0  06:18        1.84
  YS02163601           JUNCTION     1.16     1.95     8.35     0  06:18        1.95
  YS02164001           JUNCTION     1.10     1.89     8.35     0  06:18        1.89
  YS02001647           JUNCTION     0.97     1.74     8.35     0  06:28        1.74
  YSB1154              JUNCTION     0.24     0.37     9.43     0  02:18        0.37
  YSB6556              JUNCTION     0.14     0.26     9.43     0  02:18        0.26
  YSB1174              JUNCTION     0.19     0.32     9.43     0  02:18        0.32
  YSB1171              JUNCTION     0.38     0.52     9.43     0  02:18        0.52
  YS02006553           JUNCTION     0.66     0.84     7.12     0  02:59        0.84
  YS02006561           JUNCTION     0.14     0.21     6.87     0  03:00        0.21
  YS02006556           JUNCTION     0.64     0.81     7.12     0  03:00        0.81
  YS02006558           JUNCTION     0.68     0.85     7.12     0  03:00        0.85
  YS02001783           JUNCTION     0.24     0.38     6.52     0  03:00        0.38
  YS02001784           JUNCTION     0.27     0.40     6.47     0  02:59        0.40
  YS02001786           JUNCTION     0.23     0.34     6.37     0  03:00        0.34
  YS02001788           JUNCTION     0.17     0.26     6.23     0  03:00        0.26
  YS02001790           JUNCTION     0.21     0.31     5.96     0  03:00        0.31
  YS02001791           JUNCTION     0.13     0.20     5.67     0  03:00        0.20
  YS02001793           JUNCTION     0.09     0.13     4.97     0  03:01        0.13
  WS02004139           JUNCTION     0.54     0.56     5.47     0  02:45        0.56
  WSC                  OUTFALL      0.24     0.30     0.97     0  02:43        0.30
  3                    OUTFALL      0.05     0.13     6.13     0  00:00        0.10
  4                    OUTFALL      0.00     0.00     7.00     0  00:00        0.00
  5                    OUTFALL      0.00     0.00     5.00     0  00:00        0.00
  JK-storage           STORAGE      0.07     3.00     3.80     0  00:00        2.70
  CC-storage           STORAGE      0.59     1.36     8.36     0  06:27        1.36
  XR-storage           STORAGE      7.25     7.72     5.72     0  02:45        7.72
  
  
  *******************
  Node Inflow Summary
  *******************
  
  -------------------------------------------------------------------------------------------------
                                  Maximum  Maximum                  Lateral       Total        Flow
                                  Lateral    Total  Time of Max      Inflow      Inflow     Balance
                                   Inflow   Inflow   Occurrence      Volume      Volume       Error
  Node                 Type           LPS      LPS  days hr:min    10^6 ltr    10^6 ltr     Percent
  -------------------------------------------------------------------------------------------------
  WS02001211           JUNCTION      7.35   197.92     0  02:56       0.207        5.54       0.549
  WS02001212           JUNCTION      0.00   198.23     0  02:55           0        5.51       0.287
  WS02001213           JUNCTION      0.00   198.50     0  02:56           0        5.49       0.325
  WS02003069           JUNCTION      0.32   547.19     0  02:41     0.00902        9.16       0.193
  WS02003072           JUNCTION      0.00   547.17     0  02:41           0        9.15       0.261
  WS02003073           JUNCTION      1.82   548.99     0  02:42      0.0514        9.17       0.272
  WS02003060           JUNCTION     16.53   546.86     0  02:40       0.466        9.18       0.185
  WS02003066           JUNCTION      0.00   335.24     0  02:38           0        3.27       0.069
  WS02003059           JUNCTION      0.00   199.16     0  02:56           0        5.48       0.558
  WS02003067           JUNCTION      0.00   335.23     0  02:38           0        3.27       0.173
  WS02004401           JUNCTION      0.00   339.52     0  02:32           0        3.41       0.393
  WS02004402           JUNCTION      0.00   338.83     0  02:32           0         3.4       0.389
  WS02004403           JUNCTION      0.00   338.43     0  02:33           0        3.38       0.370
  WS02004404           JUNCTION      0.16   338.36     0  02:33     0.00457        3.38       0.298
  WS02004406           JUNCTION      0.00   338.24     0  02:34           0        3.35       0.736
  WS02004409           JUNCTION      0.00   338.17     0  02:34           0        3.33       0.197
  WS02004410           JUNCTION      0.00   337.03     0  02:35           0        3.32       0.250
  WS02004411           JUNCTION      0.00   336.15     0  02:36           0        3.31       0.283
  WS02004412           JUNCTION      0.00   335.63     0  02:37           0         3.3       0.341
  WS02004413           JUNCTION      0.00   335.34     0  02:38           0        3.29       0.557
  WS02004405           JUNCTION      0.04   338.31     0  02:34     0.00107        3.37       0.447
  WS02006109           JUNCTION      1.23   339.50     0  02:27      0.0347        3.46       0.414
  WS02006110           JUNCTION      0.00   339.47     0  02:28           0        3.45       0.340
  WS02006111           JUNCTION      0.00   344.75     0  02:28           0        3.43       0.058
  WS02006112           JUNCTION      8.02   345.23     0  02:28      0.0238        3.45       0.584
  WS02006113           JUNCTION      0.00   339.44     0  02:28           0        3.43       0.111
  WS02006115           JUNCTION      0.00   342.82     0  02:29           0        3.43       0.290
  WS02006116           JUNCTION      0.00   340.64     0  02:31           0        3.42       0.298
  WS02006230           JUNCTION     10.28   174.97     0  02:36        0.29        2.61       0.368
  WS02006231           JUNCTION      0.00   164.20     0  02:36           0        2.32       0.054
  WS02006232           JUNCTION      0.00   163.87     0  02:36           0        2.33       0.388
  WS02006234           JUNCTION      0.00   163.59     0  02:36           0        2.33       0.034
  WS02006235           JUNCTION      0.00   166.25     0  00:01           0        2.37       0.264
  WS02006238           JUNCTION      0.00    88.92     0  00:00           0       0.175       1.481
  WS02006240           JUNCTION      0.00    40.17     0  00:02           0       0.153       1.197
  WS02006242           JUNCTION      0.00    33.98     0  02:24           0       0.145       1.494
  WS02006243           JUNCTION      0.00    35.29     0  02:23           0       0.137      -0.512
  WS02006245           JUNCTION      0.00    35.31     0  02:22           0       0.136       0.734
  WS02006247           JUNCTION      0.00    35.32     0  02:22           0       0.136       0.084
  WS02006248           JUNCTION      0.00    35.33     0  02:21           0       0.136       0.020
  WS02006249           JUNCTION      0.00    35.38     0  02:20           0       0.136       0.263
  WS02006239           JUNCTION      0.00    71.07     0  00:01           0       0.163       1.728
  WS02006251           JUNCTION      0.08    35.42     0  02:19     0.00217       0.136       0.059
  WS02006252           JUNCTION      0.00     0.00     0  00:00           0           0       0.000 ltr
  WS02006253           JUNCTION      1.22    35.36     0  02:19     0.00309       0.134       0.110
  WS02006256           JUNCTION      0.00   300.00     0  00:00           0        3.05       0.074
  WS02004138           JUNCTION      0.00   190.00     0  00:10           0        5.36       0.074
  WS02004407           JUNCTION      0.00   338.19     0  02:34           0        3.33       0.094
  WS02006228           JUNCTION      0.00   338.31     0  02:27           0        3.43       0.256
  WS02006229           JUNCTION      0.00   338.34     0  02:27           0        3.44       0.242
  WS02006280           JUNCTION      0.00   183.59     0  02:20           0       0.839       0.008
  WS02006284           JUNCTION      0.10   183.58     0  02:20      0.0027        0.84       0.128
  WS02006287           JUNCTION      0.00   183.50     0  02:19           0       0.838       0.087
  WSF200               JUNCTION      0.00   335.24     0  02:38           0        3.26       0.053
  HS02004901           JUNCTION      9.93     9.93     0  02:11      0.0287      0.0288       6.491
  HS02004881           JUNCTION      4.02    34.42     0  02:19      0.0125       0.131       0.046
  HS02004876           JUNCTION      6.40    30.70     0  02:19       0.024       0.119       0.444
  HS02004870           JUNCTION      7.09    24.42     0  02:19      0.0237      0.0952       0.112
  HS02004862           JUNCTION      5.87    17.79     0  02:20      0.0293      0.0717       0.236
  HS02004856           JUNCTION      5.25    11.97     0  02:19      0.0178      0.0439       3.384
  HS02004852           JUNCTION      0.00     7.04     0  02:19           0      0.0261       0.193
  HS02004848           JUNCTION     11.67    11.67     0  02:23      0.0563      0.0563       0.078
  HS02004842           JUNCTION      0.00     5.01     0  02:33           0      0.0432      43.031
  HS02004837           JUNCTION     17.71    22.02     0  02:18        0.22        0.25       0.326
  HS02004830           JUNCTION      0.15    22.16     0  02:19     0.00423       0.241       0.514
  HS02004824           JUNCTION     13.17    35.16     0  02:23      0.0738       0.313       0.172
  HS02004817           JUNCTION      0.60    35.76     0  02:23      0.0169        0.33       5.323
  HS02004807           JUNCTION     13.33    47.90     0  02:21      0.0435       0.357       1.199
  HS02004802           JUNCTION      0.00    48.08     0  02:22           0       0.352       1.166
  HS02004799           JUNCTION     10.26   115.48     0  02:17      0.0352       0.431       0.529
  HS02004792           JUNCTION     45.89   105.43     0  02:17       0.155       0.396       0.104
  HS02004788           JUNCTION     15.60    61.36     0  02:18       0.096       0.243       0.162
  HS02004785           JUNCTION      0.15    46.16     0  02:17     0.00423       0.149       0.326
  HS02004777           JUNCTION      0.03    46.53     0  02:15    0.000846       0.149       3.602
  HS02004770           JUNCTION     38.85    47.67     0  02:13       0.123        0.15       2.114
  HS02004480           JUNCTION      0.00   136.23     0  02:18           0       0.502       0.143
  HS02004479           JUNCTION      0.00    21.13     0  02:20           0      0.0833       0.883
  HS02004478           JUNCTION      0.00   183.51     0  02:19           0       0.839       0.075
  YS02001745           JUNCTION     67.29   168.45     0  04:01       0.738       0.768       1.499
  YS02001748           JUNCTION      0.04   256.51     0  03:59     0.00127       0.789       3.115
  YS02001751           JUNCTION      0.01   260.46     0  04:01     0.00031       0.736       3.160
  YS02001754           JUNCTION      0.26   101.37     0  03:55     0.00733       0.692       3.687
  YS02001762           JUNCTION      0.00    97.58     0  02:56           0        0.79       2.808
  YS02001765           JUNCTION      0.00    94.80     0  02:40           0       0.793       3.196
  YS02001767           JUNCTION      0.54   116.91     0  03:09      0.0151       0.814       4.531
  YS02001770           JUNCTION     86.51   122.36     0  03:10       0.867       0.897       3.693
  YS02001774           JUNCTION      0.00    49.65     0  03:10           0      0.0985      34.988
  YS02001779           JUNCTION      0.01    47.49     0  03:10    0.000141      0.0433      53.760
  YS02001882           JUNCTION      0.00     3.54     0  02:08           0     0.00483      50.945
  YS02001884           JUNCTION      0.00    10.11     0  02:08           0      0.0194      32.584
  YS02001759           JUNCTION     84.46   177.97     0  03:07        0.81        1.57       1.520
  YS02001887           JUNCTION    111.00   111.00     0  02:47       0.971       0.981       0.724
  YS02001890           JUNCTION      0.00   110.36     0  02:49           0       0.958       0.814
  YS02001898           JUNCTION      0.00   109.89     0  02:52           0       0.947       0.224
  YS02001901           JUNCTION      0.00   109.76     0  02:52           0       0.946       0.575
  YS02001904           JUNCTION      0.00   109.38     0  02:53           0       0.945       0.535
  YS02001907           JUNCTION      0.00   199.93     0  03:02           0        2.02       1.095
  YS02001910           JUNCTION      0.00    91.20     0  03:01           0        1.08       0.932
  YS02001915           JUNCTION     60.35    90.96     0  03:01       0.633        1.09       0.408
  YS02001918           JUNCTION      0.00    30.87     0  03:03           0       0.457       0.233
  YS02001619           JUNCTION     58.67    58.67     0  03:01       0.624       0.625       2.017
  YS02001629           JUNCTION      0.00   132.35     0  04:10           0       0.557       5.555
  YS02001641           JUNCTION      0.00   125.49     0  03:10           0        1.17       1.870
  YS02001644           JUNCTION     63.90   206.92     0  06:33       0.708        2.19       1.234
  YS02001652           JUNCTION      0.00   107.65     0  03:58           0       0.642       3.863
  YS02001655           JUNCTION      0.15   220.76     0  03:55     0.00434       0.685       3.725
  YS02001920           JUNCTION      2.87    30.89     0  03:02      0.0809       0.459       0.431
  YS02001923           JUNCTION      0.04    28.02     0  03:02     0.00106       0.379       0.075
  YS02001926           JUNCTION      0.05    28.05     0  03:01     0.00147        0.38       0.541
  YS02001929           JUNCTION     28.02    28.02     0  03:01       0.378       0.378       0.073
  YS02001658           JUNCTION      0.00   194.09     0  03:58           0        0.72       3.451
  YS02001661           JUNCTION      0.00   120.83     0  03:56           0       0.726       3.100
  YS02001664           JUNCTION     78.70    78.70     0  02:49       0.709       0.715       0.737
  YS02001622           JUNCTION      0.00    90.45     0  04:08           0       0.626       5.375
  YS02001633           JUNCTION     64.95   128.17     0  03:11       0.729        1.22       2.693
  YS02001649           JUNCTION      0.00   274.61     0  03:06           0        2.42       1.588
  YS02001757           JUNCTION      0.00   464.25     0  03:01           0        4.29       2.215
  YS02001895           JUNCTION      0.00   110.03     0  02:51           0        0.95       0.382
  YS02001625           JUNCTION      0.00   132.73     0  04:10           0       0.606       6.865
  YS02163301           JUNCTION      0.00    74.35     0  03:07           0       0.522       4.870
  YS02163601           JUNCTION      0.11   133.00     0  03:06      0.0031        1.19       2.620
  YS02164001           JUNCTION      0.00   131.92     0  03:06           0        1.17       1.820
  YS02001647           JUNCTION      0.00   187.29     0  03:01           0        1.89       1.544
  YSB1154              JUNCTION     11.38    11.38     0  02:16      0.0427       0.044       3.391
  YSB6556              JUNCTION      0.00    11.39     0  02:18           0      0.0451       2.843
  YSB1174              JUNCTION     11.29    11.29     0  02:10      0.0311      0.0322       4.156
  YSB1171              JUNCTION      0.00    21.15     0  02:17           0      0.0828       8.268
  YS02006553           JUNCTION      0.00   200.28     0  03:02           0        2.01       0.711
  YS02006561           JUNCTION      0.00   293.07     0  03:00           0        2.84       0.022
  YS02006556           JUNCTION      0.00   200.57     0  03:03           0        2.01       0.512
  YS02006558           JUNCTION     94.15   293.08     0  02:59       0.885        2.87       0.156
  YS02001783           JUNCTION      0.00   293.07     0  03:00           0        2.84       0.052
  YS02001784           JUNCTION      1.06   294.13     0  02:59      0.0299        2.87       0.086
  YS02001786           JUNCTION      0.06   294.18     0  03:00     0.00159        2.87       0.083
  YS02001788           JUNCTION      0.07   294.25     0  03:00       0.002        2.87       0.048
  YS02001790           JUNCTION      0.15   294.40     0  03:00     0.00437        2.87       0.060
  YS02001791           JUNCTION      0.00   294.40     0  03:00           0        2.87       0.030
  YS02001793           JUNCTION      0.00   294.40     0  03:00           0        2.87       0.014
  WS02004139           JUNCTION      0.32   191.11     0  00:00     0.00905        5.36       0.590
  WSC                  OUTFALL       0.00   548.94     0  02:43           0        9.15       0.000
  3                    OUTFALL       0.00   250.55     0  00:00           0       0.832       0.000
  4                    OUTFALL       0.00     0.00     0  00:00           0           0       0.000 ltr
  5                    OUTFALL       0.00     0.00     0  00:00           0           0       0.000 ltr
  JK-storage           STORAGE       0.00   294.40     0  03:01           0        3.02      -0.925
  CC-storage           STORAGE       0.00   464.46     0  03:01           0        3.91       1.688
  XR-storage           STORAGE     309.18   309.18     0  03:01        6.88        7.48      -0.000
  
  
  **********************
  Node Surcharge Summary
  **********************
  
  Surcharging occurs when water rises above the top of the highest conduit.
  ---------------------------------------------------------------------
                                               Max. Height   Min. Depth
                                   Hours       Above Crown    Below Rim
  Node                 Type      Surcharged         Meters       Meters
  ---------------------------------------------------------------------
  YS02001748           JUNCTION        2.51          0.201        0.989
  YS02001751           JUNCTION        3.53          0.479        0.721
  YS02001754           JUNCTION        4.12          0.700        0.450
  YS02001762           JUNCTION        4.92          0.958        0.192
  YS02001765           JUNCTION        4.74          0.908        0.192
  YS02001767           JUNCTION        4.61          0.870        0.160
  YS02001770           JUNCTION        4.51          0.834        0.086
  YS02001774           JUNCTION        4.85          0.937        0.113
  YS02001779           JUNCTION        4.04          0.673        0.007
  YS02001759           JUNCTION        5.02          0.994        0.216
  YS02001619           JUNCTION        3.39          0.424        0.186
  YS02001629           JUNCTION        3.39          0.424        0.046
  YS02001641           JUNCTION        4.82          0.915        0.185
  YS02001644           JUNCTION        4.83          0.920        0.000
  YS02001652           JUNCTION        4.22          0.731        0.399
  YS02001655           JUNCTION        3.61          0.507        0.693
  YS02001658           JUNCTION        2.58          0.215        1.085
  YS02001622           JUNCTION        3.45          0.449        0.171
  YS02001633           JUNCTION        4.68          0.879        0.181
  YS02001649           JUNCTION        4.95          0.967        0.083
  YS02001757           JUNCTION        5.23          1.097        0.113
  YS02001625           JUNCTION        4.31          0.749        0.031
  YS02163301           JUNCTION        4.54          0.836        0.194
  YS02163601           JUNCTION        4.94          0.955        0.125
  YS02164001           JUNCTION        4.75          0.895        0.205
  YS02001647           JUNCTION        4.28          0.744        0.156
  
  
  *********************
  Node Flooding Summary
  *********************
  
  Flooding refers to all water that overflows a node, whether it ponds or not.
  --------------------------------------------------------------------------
                                                             Total   Maximum
                                 Maximum   Time of Max       Flood    Ponded
                        Hours       Rate    Occurrence      Volume     Depth
  Node                 Flooded       LPS   days hr:min    10^6 ltr    Meters
  --------------------------------------------------------------------------
  YS02001644              1.53    206.91      0  06:33       0.598     0.000
  XR-storage              5.07    119.18      0  03:01       1.192     0.000
  
  
  **********************
  Storage Volume Summary
  **********************
  
  --------------------------------------------------------------------------------------------------
                         Average     Avg  Evap Exfil       Maximum     Max    Time of Max    Maximum
                          Volume    Pcnt  Pcnt  Pcnt        Volume    Pcnt     Occurrence    Outflow
  Storage Unit           1000 m3    Full  Loss  Loss       1000 m3    Full    days hr:min        LPS
  --------------------------------------------------------------------------------------------------
  JK-storage               0.004       1     0     0         0.151      52       0  00:00     300.00
  CC-storage               1.648      11     0     0         3.801      24       0  06:27      79.32
  XR-storage               0.870      94     0     0         0.926     100       0  02:45     190.00
  
  
  ***********************
  Outfall Loading Summary
  ***********************
  
  -----------------------------------------------------------
                         Flow       Avg       Max       Total
                         Freq      Flow      Flow      Volume
  Outfall Node           Pcnt       LPS       LPS    10^6 ltr
  -----------------------------------------------------------
  WSC                   99.99    370.60    548.94       9.150
  3                     64.86     98.98    250.55       0.832
  4                      0.00      0.00      0.00       0.000
  5                      0.00      0.00      0.00       0.000
  -----------------------------------------------------------
  System                41.21    469.58    697.72       9.982
  
  
  ********************
  Link Flow Summary
  ********************
  
  -----------------------------------------------------------------------------
                                 Maximum  Time of Max   Maximum    Max/    Max/
                                  |Flow|   Occurrence   |Veloc|    Full    Full
  Link                 Type          LPS  days hr:min     m/sec    Flow   Depth
  -----------------------------------------------------------------------------
  WS02003066WSF200     CONDUIT    335.24     0  02:38      2.44    0.06    0.18
  WS02006287WS02006284 CONDUIT    183.49     0  02:20      1.56    0.09    0.21
  WS02006284WS02006280 CONDUIT    183.59     0  02:20      1.80    0.08    0.19
  WS02006280WS02006229 CONDUIT    183.59     0  02:20      2.89    0.04    0.14
  WS02006229WS02006228 CONDUIT    338.31     0  02:27      0.83    1.12    0.91
  WS02006256WS02006235 CONDUIT    166.25     0  00:01      2.58    1.76    1.00
  WS02006253WS02006251 CONDUIT     35.34     0  02:19      0.47    0.11    0.25
  WS02006252WS02006251 CONDUIT      0.00     0  00:00      0.00    0.00    0.00
  WS02006251WS02006249 CONDUIT     35.38     0  02:20      0.51    0.10    0.24
  WS02006249WS02006248 CONDUIT     35.33     0  02:21      0.61    0.19    0.21
  WS02006248WS02006247 CONDUIT     35.32     0  02:22      0.59    0.08    0.21
  WS02006247WS02006245 CONDUIT     35.31     0  02:22      0.54    0.28    0.23
  WS02006245WS02006243 CONDUIT     35.29     0  02:23      0.67    0.10    0.22
  WS02006243WS02006242 CONDUIT     33.98     0  02:24      0.53    0.07    0.33
  WS02006242WS02006240 CONDUIT     32.53     0  02:30      0.64    0.13    0.43
  WS02006240WS02006239 CONDUIT     42.32     0  00:11      0.58    0.13    0.45
  WS02006239WS02006238 CONDUIT     71.07     0  00:01      0.67    0.23    0.57
  WS02006238WS02006235 CONDUIT     94.85     0  00:11      1.25    0.21    0.61
  WS02006235WS02006234 CONDUIT    163.59     0  02:36      0.93    1.73    0.56
  WS02006234WS02006232 CONDUIT    163.87     0  02:36      1.13    0.33    0.64
  WS02006232WS02006231 CONDUIT    164.20     0  02:36      0.67    0.34    0.62
  WS02006231WS02006230 CONDUIT    164.69     0  02:36      1.00    2.50    0.50
  WS02006230WS02006229 CONDUIT    176.09     0  02:37      0.86    3.92    0.98
  WS02006228WS02006109 CONDUIT    338.27     0  02:27      0.75    1.48    0.94
  WS02006116WS02004401 CONDUIT    339.52     0  02:32      0.73    0.47    0.68
  WS02006115WS02006116 CONDUIT    340.64     0  02:31      0.79    0.44    0.59
  WS02006113WS02006111 CONDUIT    344.75     0  02:28      2.10    0.41    0.36
  WS02006112WS02006115 CONDUIT    342.82     0  02:29      0.59    0.20    0.72
  WS02006111WS02006112 CONDUIT    339.65     0  02:28      1.32    0.16    0.64
  WS02006110WS02006113 CONDUIT    339.44     0  02:28      0.91    0.31    0.70
  WS02006109WS02006110 CONDUIT    339.47     0  02:28      0.72    0.65    0.89
  WS02004411WS02004412 CONDUIT    335.63     0  02:37      0.74    0.48    0.56
  WS02004401WS02004402 CONDUIT    338.83     0  02:32      0.77    0.41    0.71
  WS02004413WS02003067 CONDUIT    335.23     0  02:38      0.86    0.14    0.50
  WS02004412WS02004413 CONDUIT    335.34     0  02:38      0.62    0.22    0.65
  WS02004410WS02004411 CONDUIT    336.15     0  02:36      0.77    0.46    0.54
  WS02004409WS02004410 CONDUIT    337.03     0  02:35      0.82    0.44    0.52
  WS02004407WS02004409 CONDUIT    338.17     0  02:34      1.30    0.12    0.37
  WS02004406WS02004407 CONDUIT    338.19     0  02:34      0.79    0.15    0.53
  WS02004405WS02004406 CONDUIT    338.24     0  02:34      0.66    0.67    0.83
  WS02004404WS02004405 CONDUIT    338.27     0  02:34      0.84    3.31    0.83
  WS02004403WS02004404 CONDUIT    338.20     0  02:33      0.74    0.24    0.79
  WS02004402WS02004403 CONDUIT    338.43     0  02:33      0.75    0.49    0.74
  WS02004139WS02001211 CONDUIT    190.58     0  02:56      0.69    0.24    0.45
  WS02004138WS02004139 CONDUIT    190.79     0  00:00      2.94    0.04    0.32
  WS02003067WS02003066 CONDUIT    335.24     0  02:38      0.92    0.11    0.36
  WS02001213WS02003059 CONDUIT    199.16     0  02:56      0.65    0.33    0.61
  WS02001212WS02001213 CONDUIT    198.50     0  02:56      1.03    0.31    0.31
  WS02001211WS02001212 CONDUIT    198.23     0  02:55      0.54    0.15    0.48
  WS02003072WS02003073 CONDUIT    547.16     0  02:42      1.43    1.18    0.37
  WS02003069WS02003072 CONDUIT    547.17     0  02:41      1.36    0.26    0.38
  WS02003060WS02003069 CONDUIT    546.87     0  02:41      1.64    0.21    0.34
  WS02003059WS02003060 CONDUIT    200.08     0  02:55      0.67    0.13    0.52
  HS02004901HS02004770 CONDUIT      9.11     0  02:16      0.04    0.03    0.31
  HS02004876HS02004881 CONDUIT     30.74     0  02:20      0.52    0.33    0.09
  HS02004870HS02004876 CONDUIT     24.40     0  02:20      0.36    0.02    0.10
  HS02004842HS02004848 CONDUIT      5.01     0  02:33      0.03    0.00    0.27
  HS02004837HS02004842 CONDUIT      5.17     0  02:33      0.41    0.00    0.29
  HS02004830HS02004837 CONDUIT     22.01     0  02:19      0.43    0.02    0.07
  HS02004824HS02004830 CONDUIT     22.16     0  02:20      0.47    0.03    0.07
  HS02004817HS02004824 CONDUIT     35.16     0  02:23      0.17    0.02    0.39
  HS02004770HS02004777 CONDUIT     46.50     0  02:15      0.21    0.09    0.32
  HS02004799HS02004480 CONDUIT    115.32     0  02:17      0.56    0.15    0.30
  HS02004792HS02004799 CONDUIT    105.38     0  02:17      0.64    0.06    0.23
  HS02004788HS02004792 CONDUIT     61.31     0  02:18      0.80    0.04    0.11
  HS02004785HS02004788 CONDUIT     46.03     0  02:18      0.48    0.35    0.14
  HS02004777HS02004785 CONDUIT     46.01     0  02:17      0.25    0.06    0.26
  HS02004480HS02004478 CONDUIT    136.18     0  02:19      0.92    0.57    0.21
  HS02004479HS02004480 CONDUIT     21.30     0  02:21      0.15    0.02    0.29
  HS02004862HS02004870 CONDUIT     17.76     0  02:21      0.44    0.02    0.06
  HS02004848HS02004852 CONDUIT      7.04     0  02:19      0.29    0.01    0.03
  HS02004856HS02004862 CONDUIT     11.94     0  02:20      0.32    0.01    0.05
  HS02004852HS02004856 CONDUIT      7.01     0  02:21      0.11    0.01    0.09
  HS02004802HS02004478 CONDUIT     48.34     0  02:23      0.29    0.04    0.24
  HS02004478WS02006287 CONDUIT    183.50     0  02:19      1.26    0.05    0.16
  HS02004817HS02004807 CONDUIT     36.17     0  02:25      0.10    0.02    0.50
  HS02004807HS02004802 CONDUIT     48.08     0  02:22      0.24    0.09    0.29
  YS02001759YS02001757 CONDUIT    179.73     0  02:56      0.23    0.13    1.00
  YS02001762YS02001759 CONDUIT     99.78     0  03:07      0.18    0.11    1.00
  YS02001765YS02001762 CONDUIT     97.58     0  02:56      0.23    0.09    1.00
  YS02001770YS02001767 CONDUIT    116.37     0  03:09      0.31    0.46    1.00
  YS02001774YS02001770 CONDUIT     49.65     0  03:10      0.14    0.03    1.00
  YS02001779YS02001774 CONDUIT     47.48     0  03:10      0.08    0.02    1.00
  YS02001649YS02001757 CONDUIT    275.46     0  03:05      0.35    0.17    1.00
  YS02001767YS02001765 CONDUIT     94.80     0  02:40      0.25    0.12    1.00
  YS02006561YS02001783 CONDUIT    293.07     0  03:00      1.75    0.15    0.37
  YS02001783YS02001784 CONDUIT    293.07     0  02:59      1.21    0.40    0.49
  YS02001784YS02001785 CONDUIT    294.12     0  03:00      1.28    0.68    0.47
  YS02001788YS02001790 CONDUIT    294.25     0  03:00      1.84    0.22    0.35
  YS02001790YS02001791 CONDUIT    294.40     0  03:00      2.13    0.32    0.32
  YS02001791YS02001793 CONDUIT    294.40     0  03:00      3.87    0.13    0.21
  YS02001910YS02001907 CONDUIT     91.29     0  03:02      0.49    0.05    0.72
  YS02001786YS02001788 CONDUIT    294.17     0  03:00      1.71    0.57    0.37
  YS02001915YS02001910 CONDUIT     91.20     0  03:01      0.44    0.05    0.51
  YS02001918YS02001915 CONDUIT     30.85     0  03:03      0.44    0.02    0.25
  YS02001923YS02001920 CONDUIT     28.02     0  03:02      0.43    0.01    0.14
  YS02001926YS02001923 CONDUIT     27.98     0  03:02      0.47    0.04    0.13
  YS02001929YS02001926 CONDUIT     28.00     0  03:01      0.50    0.01    0.12
  YS02001920YS02001918 CONDUIT     30.87     0  03:03      0.45    0.03    0.14
  YS02001629YS02163301 CONDUIT     74.35     0  03:07      0.11    0.09    1.00
  YS02001619YS02001622 CONDUIT     90.45     0  04:08      0.63    0.13    1.00
  YS02001622YS02001625 CONDUIT    132.73     0  04:10      0.24    0.07    1.00
  YS02001625YS02001629 CONDUIT    132.35     0  04:10      0.23    0.06    1.00
  YS02163301YS02001633 CONDUIT     67.68     0  03:11      0.10    0.06    1.00
  YS02163601YS02164001 CONDUIT    131.92     0  03:06      0.17    0.12    1.00
  YS02164001YS02001641 CONDUIT    125.49     0  03:10      0.16    0.17    1.00
  YS02001641YS02001644 CONDUIT    125.41     0  03:09      0.16    0.41    1.00
  YS02001647YS02001649 CONDUIT    200.92     0  03:21      0.26    0.11    1.00
  YS02006553YS02006556 CONDUIT    200.57     0  03:03      0.30    0.17    0.80
  YS02006556YS02006558 CONDUIT    200.77     0  03:03      0.29    0.16    0.83
  YSB6556YSB1171       CONDUIT     11.53     0  02:21      0.05    0.01    0.56
  YS02001907YS02006553 CONDUIT    200.28     0  03:02      0.24    0.24    0.91
  YS02006558YS02006561 CONDUIT    293.07     0  03:00      2.25    0.65    0.47
  YS02001633YS02163601 CONDUIT    132.89     0  03:06      0.17    0.14    1.00
  YS02001644YS02001647 CONDUIT    187.29     0  03:01      0.25    0.11    1.00
  YS02001745YS02001748 CONDUIT    187.83     0  03:59      1.38    0.07    0.92
  YS02001748YS02001751 CONDUIT    248.75     0  04:01      1.06    0.13    1.00
  YS02001751YS02001754 CONDUIT    101.11     0  03:55      0.94    0.05    1.00
  YS02001754YS02001757 CONDUIT    104.41     0  03:51      0.33    0.04    1.00
  YS02001882YS02001884 CONDUIT      3.54     0  02:08      0.06    0.00    0.45
  YS02001884YS02001887 CONDUIT     10.11     0  02:08      0.06    0.01    0.54
  YS02001890YS02001895 CONDUIT    110.03     0  02:51      0.28    0.05    0.51
  YS02001895YS02001898 CONDUIT    109.89     0  02:52      0.47    0.19    0.37
  YS02001898YS02001901 CONDUIT    109.76     0  02:52      0.32    0.07    0.45
  YS02001901YS02001904 CONDUIT    109.38     0  02:53      0.28    0.17    0.50
  YS02001904YS02001907 CONDUIT    109.43     0  02:55      0.20    0.04    0.66
  YS02001887YS02001890 CONDUIT    110.36     0  02:49      0.23    0.19    0.59
  YS02001652YS02001649 CONDUIT    117.30     0  03:02      0.31    0.06    1.00
  YS02001655YS02001652 CONDUIT    107.65     0  03:58      1.01    0.05    1.00
  YS02001658YS02001655 CONDUIT    198.90     0  03:55      1.22    0.08    1.00
  YS02001661YS02001658 CONDUIT    164.96     0  04:05      1.41    0.06    0.94
  YS02001664YS02001661 CONDUIT     78.70     0  02:49      1.07    0.02    0.69
  YSB1154YSB6556       CONDUIT     11.39     0  02:18      0.19    0.02    0.45
  YSB1174YSB1171       CONDUIT     10.51     0  02:11      0.05    0.02    0.56
  YSB1171HS02004479    CONDUIT     21.13     0  02:20      0.54    0.01    0.43
  HS02004881HS02006253 CONDUIT     34.42     0  02:19      1.59    0.01    0.03
  YS02001793JiankangQianchi CONDUIT    294.40     0  03:01     12.94    0.02    0.50
  YS02001757CaochengTiaoxuchi CONDUIT    464.46     0  03:01      0.90    0.20    1.00
  WSF200WS02003060     CONDUIT    335.31     0  02:39      1.46    0.07    0.26
  1                    CONDUIT    548.94     0  02:43      2.82    0.19    0.30
  2                    CONDUIT      0.00     0  00:00      0.00    0.00    0.00
  3                    CONDUIT    250.55     0  00:00      8.26    0.40    0.46
  4                    CONDUIT      0.00     0  00:00      0.00    0.00    0.00
  CC-Pump-1            PUMP         0.00     0  00:00              0.00
  CC-Pump-2            PUMP         0.00     0  00:00              0.00
  JK-Pump-1            PUMP       300.00     0  00:00              1.00
  JK-Pump-2            PUMP       294.40     0  03:01              0.98
  XR-Pump-1            PUMP        95.00     0  00:00              1.00
  XR-Pump-2            PUMP        95.00     0  00:00              1.00
  XR-Pump-3            PUMP         0.00     0  00:00              0.00
  XR-Pump-4            PUMP        95.00     0  00:20              1.00
  
  
  ***************************
  Flow Classification Summary
  ***************************
  
  -------------------------------------------------------------------------------------
                      Adjusted    ---------- Fraction of Time in Flow Class ---------- 
                       /Actual         Up    Down  Sub   Sup   Up    Down  Norm  Inlet 
  Conduit               Length    Dry  Dry   Dry   Crit  Crit  Crit  Crit  Ltd   Ctrl  
  -------------------------------------------------------------------------------------
  WS02003066WSF200        1.00   0.12  0.00  0.00  0.00  0.88  0.00  0.00  0.76  0.00
  WS02006287WS02006284    1.00   0.08  0.03  0.00  0.49  0.40  0.00  0.00  0.78  0.00
  WS02006284WS02006280    1.00   0.09  0.00  0.00  0.00  0.00  0.00  0.91  0.00  0.00
  WS02006280WS02006229    1.00   0.09  0.00  0.00  0.00  0.00  0.00  0.91  0.00  0.00
  WS02006229WS02006228    1.00   0.00  0.00  0.00  0.97  0.00  0.00  0.03  0.00  0.00
  WS02006256WS02006235    1.00   0.00  0.00  0.00  0.99  0.01  0.00  0.00  0.00  0.00
  WS02006253WS02006251    1.00   0.06  0.02  0.00  0.91  0.00  0.01  0.00  0.00  0.00
  WS02006252WS02006251    1.00   1.00  0.00  0.00  0.00  0.00  0.00  0.00  0.00  0.00
  WS02006251WS02006249    1.00   0.00  0.00  0.00  1.00  0.00  0.00  0.00  0.98  0.00
  WS02006249WS02006248    1.00   0.00  0.04  0.00  0.00  0.00  0.96  0.00  0.00  0.00
  WS02006248WS02006247    1.00   0.05  0.00  0.00  0.95  0.00  0.00  0.00  0.87  0.00
  WS02006247WS02006245    1.00   0.04  0.00  0.00  0.96  0.00  0.00  0.00  0.00  0.00
  WS02006245WS02006243    1.00   0.03  0.01  0.00  0.88  0.00  0.00  0.09  0.16  0.00
  WS02006243WS02006242    1.00   0.01  0.01  0.00  0.98  0.00  0.00  0.00  0.43  0.00
  WS02006242WS02006240    1.00   0.01  0.00  0.00  0.99  0.00  0.00  0.00  0.00  0.00
  WS02006240WS02006239    1.00   0.00  0.00  0.00  0.91  0.00  0.00  0.09  0.01  0.00
  WS02006239WS02006238    1.00   0.00  0.00  0.00  1.00  0.00  0.00  0.00  0.01  0.00
  WS02006238WS02006235    1.00   0.00  0.00  0.00  1.00  0.00  0.00  0.00  0.00  0.00
  WS02006235WS02006234    1.00   0.00  0.00  0.00  0.90  0.00  0.10  0.00  0.00  0.00
  WS02006234WS02006232    1.00   0.00  0.00  0.00  0.99  0.01  0.00  0.00  0.17  0.00
  WS02006232WS02006231    1.00   0.00  0.01  0.00  0.98  0.00  0.01  0.00  0.00  0.00
  WS02006231WS02006230    1.00   0.01  0.00  0.00  0.18  0.00  0.82  0.00  0.00  0.00
  WS02006230WS02006229    1.00   0.00  0.00  0.00  0.97  0.00  0.00  0.03  0.01  0.00
  WS02006228WS02006109    1.00   0.00  0.00  0.00  0.99  0.00  0.00  0.01  0.00  0.00
  WS02006116WS02004401    1.00   0.05  0.00  0.00  0.95  0.00  0.00  0.00  0.00  0.00
  WS02006115WS02006116    1.00   0.05  0.00  0.00  0.94  0.00  0.00  0.01  0.00  0.00
  WS02006113WS02006111    1.00   0.04  0.00  0.00  0.00  0.96  0.00  0.00  0.15  0.00
  WS02006112WS02006115    1.00   0.05  0.01  0.00  0.95  0.00  0.00  0.00  0.00  0.00
  WS02006111WS02006112    1.00   0.05  0.00  0.00  0.95  0.00  0.00  0.00  0.98  0.00
  WS02006110WS02006113    1.00   0.02  0.02  0.00  0.96  0.00  0.00  0.00  0.00  0.00
  WS02006109WS02006110    1.00   0.00  0.02  0.00  0.96  0.00  0.01  0.00  0.00  0.00
  WS02004411WS02004412    1.00   0.08  0.00  0.00  0.92  0.00  0.00  0.00  0.00  0.00
  WS02004401WS02004402    1.00   0.05  0.00  0.00  0.95  0.00  0.00  0.00  0.00  0.00
  WS02004413WS02003067    1.00   0.08  0.03  0.00  0.00  0.00  0.89  0.00  0.00  0.00
  WS02004412WS02004413    1.00   0.08  0.00  0.00  0.92  0.00  0.00  0.00  0.03  0.00
  WS02004410WS02004411    1.00   0.08  0.00  0.00  0.92  0.00  0.00  0.00  0.04  0.00
  WS02004409WS02004410    1.00   0.08  0.00  0.00  0.92  0.00  0.00  0.00  0.04  0.00
  WS02004407WS02004409    1.00   0.08  0.00  0.00  0.92  0.00  0.00  0.00  0.89  0.00
  WS02004406WS02004407    1.00   0.00  0.08  0.00  0.92  0.00  0.00  0.00  0.00  0.00
  WS02004405WS02004406    1.00   0.00  0.00  0.00  1.00  0.00  0.00  0.00  0.00  0.00
  WS02004404WS02004405    1.00   0.00  0.00  0.00  1.00  0.00  0.00  0.00  0.00  0.00
  WS02004403WS02004404    1.00   0.00  0.05  0.00  0.95  0.00  0.00  0.00  0.01  0.00
  WS02004402WS02004403    1.00   0.05  0.00  0.00  0.95  0.00  0.00  0.00  0.00  0.00
  WS02004139WS02001211    1.00   0.00  0.00  0.00  0.99  0.00  0.01  0.00  0.00  0.00
  WS02004138WS02004139    1.00   0.00  0.00  0.00  0.98  0.02  0.00  0.00  1.00  0.00
  WS02003067WS02003066    1.00   0.11  0.01  0.00  0.88  0.00  0.00  0.00  0.00  0.00
  WS02001213WS02003059    1.00   0.01  0.01  0.00  0.99  0.00  0.00  0.00  0.00  0.00
  WS02001212WS02001213    1.00   0.01  0.00  0.00  0.25  0.00  0.73  0.00  0.00  0.00
  WS02001211WS02001212    1.00   0.00  0.01  0.00  0.99  0.00  0.00  0.00  0.00  0.00
  WS02003072WS02003073    1.00   0.00  0.00  0.00  0.00  0.00  0.00  1.00  0.00  0.00
  WS02003069WS02003072    1.00   0.00  0.00  0.00  0.99  0.01  0.00  0.00  0.73  0.00
  WS02003060WS02003069    1.00   0.00  0.00  0.00  0.97  0.03  0.00  0.00  0.24  0.00
  WS02003059WS02003060    1.00   0.00  0.00  0.00  0.99  0.01  0.00  0.00  0.01  0.00
  HS02004901HS02004770    1.00   0.09  0.00  0.00  0.91  0.00  0.00  0.00  0.02  0.00
  HS02004876HS02004881    1.00   0.05  0.00  0.00  0.95  0.00  0.00  0.00  0.00  0.00
  HS02004870HS02004876    1.00   0.01  0.00  0.00  0.98  0.00  0.00  0.00  0.95  0.00
  HS02004842HS02004848    1.00   0.00  0.09  0.00  0.91  0.00  0.00  0.00  0.69  0.00
  HS02004837HS02004842    1.00   0.00  0.00  0.00  0.98  0.02  0.00  0.00  0.11  0.00
  HS02004830HS02004837    1.00   0.00  0.00  0.00  1.00  0.00  0.00  0.00  0.99  0.00
  HS02004824HS02004830    1.00   0.00  0.00  0.00  1.00  0.00  0.00  0.00  0.00  0.00
  HS02004817HS02004824    1.00   0.00  0.00  0.00  1.00  0.00  0.00  0.00  1.00  0.00
  HS02004770HS02004777    1.00   0.00  0.09  0.00  0.91  0.00  0.00  0.00  0.07  0.00
  HS02004799HS02004480    1.00   0.01  0.05  0.00  0.88  0.00  0.06  0.00  0.00  0.00
  HS02004792HS02004799    1.00   0.00  0.00  0.00  0.97  0.03  0.00  0.00  0.98  0.00
  HS02004788HS02004792    1.00   0.00  0.00  0.00  0.98  0.02  0.00  0.00  0.98  0.00
  HS02004785HS02004788    1.00   0.00  0.00  0.00  1.00  0.00  0.00  0.00  0.00  0.00
  HS02004777HS02004785    1.00   0.00  0.00  0.00  1.00  0.00  0.00  0.00  0.21  0.00
  HS02004480HS02004478    1.00   0.10  0.00  0.00  0.55  0.00  0.00  0.36  0.00  0.00
  HS02004479HS02004480    1.00   0.06  0.00  0.00  0.94  0.00  0.00  0.00  0.16  0.00
  HS02004862HS02004870    1.00   0.00  0.00  0.00  1.00  0.00  0.00  0.00  0.06  0.00
  HS02004848HS02004852    1.00   0.09  0.00  0.00  0.91  0.00  0.00  0.00  0.70  0.00
  HS02004856HS02004862    1.00   0.00  0.14  0.00  0.86  0.00  0.00  0.00  0.74  0.00
  HS02004852HS02004856    1.00   0.09  0.01  0.00  0.90  0.00  0.00  0.00  0.83  0.00
  HS02004802HS02004478    1.00   0.09  0.01  0.00  0.90  0.00  0.00  0.00  0.01  0.00
  HS02004478WS02006287    1.00   0.11  0.00  0.00  0.80  0.09  0.00  0.00  0.80  0.00
  HS02004817HS02004807    1.00   0.00  0.09  0.00  0.91  0.00  0.00  0.00  0.00  0.00
  HS02004807HS02004802    1.00   0.09  0.00  0.00  0.90  0.00  0.00  0.00  0.01  0.00
  YS02001759YS02001757    1.00   0.00  0.00  0.00  1.00  0.00  0.00  0.00  0.17  0.00
  YS02001762YS02001759    1.00   0.00  0.00  0.00  1.00  0.00  0.00  0.00  0.04  0.00
  YS02001765YS02001762    1.00   0.00  0.00  0.00  1.00  0.00  0.00  0.00  0.22  0.00
  YS02001770YS02001767    1.00   0.00  0.00  0.00  1.00  0.00  0.00  0.00  0.00  0.00
  YS02001774YS02001770    1.00   0.00  0.10  0.00  0.89  0.00  0.00  0.00  0.07  0.00
  YS02001779YS02001774    1.00   0.00  0.00  0.00  1.00  0.00  0.00  0.00  0.27  0.00
  YS02001649YS02001757    1.00   0.00  0.00  0.00  1.00  0.00  0.00  0.00  0.19  0.00
  YS02001767YS02001765    1.00   0.00  0.00  0.00  1.00  0.00  0.00  0.00  0.01  0.00
  YS02006561YS02001783    1.00   0.14  0.00  0.00  0.00  0.86  0.00  0.00  0.73  0.00
  YS02001783YS02001784    1.00   0.00  0.14  0.00  0.86  0.00  0.00  0.00  0.00  0.00
  YS02001784YS02001785    1.00   0.00  0.00  0.00  1.00  0.00  0.00  0.00  0.25  0.00
  YS02001788YS02001790    1.00   0.00  0.00  0.00  0.15  0.85  0.00  0.00  0.79  0.00
  YS02001790YS02001791    1.00   0.00  0.00  0.00  0.03  0.97  0.00  0.00  0.52  0.00
  YS02001791YS02001793    1.00   0.00  0.00  0.00  0.00  1.00  0.00  0.00  0.00  0.00
  YS02001910YS02001907    1.00   0.00  0.00  0.00  0.95  0.00  0.00  0.05  0.13  0.00
  YS02001786YS02001788    1.00   0.00  0.00  0.00  0.15  0.85  0.00  0.00  0.00  0.00
  YS02001915YS02001910    1.00   0.00  0.00  0.00  0.98  0.02  0.00  0.00  0.24  0.00
  YS02001918YS02001915    1.00   0.00  0.01  0.00  0.96  0.03  0.00  0.00  0.81  0.00
  YS02001923YS02001920    1.00   0.00  0.00  0.00  1.00  0.00  0.00  0.00  1.00  0.00
  YS02001926YS02001923    1.00   0.00  0.07  0.00  0.00  0.00  0.93  0.00  0.00  0.00
  YS02001929YS02001926    1.00   0.00  0.09  0.00  0.91  0.00  0.00  0.00  0.87  0.00
  YS02001920YS02001918    1.00   0.00  0.01  0.00  0.99  0.00  0.00  0.00  0.00  0.00
  YS02001629YS02163301    1.00   0.12  0.01  0.00  0.87  0.00  0.00  0.00  0.00  0.00
  YS02001619YS02001622    1.00   0.09  0.00  0.00  0.91  0.00  0.00  0.00  0.00  0.00
  YS02001622YS02001625    1.00   0.09  0.00  0.00  0.91  0.00  0.00  0.00  0.13  0.00
  YS02001625YS02001629    1.00   0.09  0.05  0.00  0.83  0.00  0.02  0.00  0.00  0.00
  YS02163301YS02001633    1.00   0.00  0.12  0.00  0.88  0.00  0.00  0.00  0.00  0.00
  YS02163601YS02164001    1.00   0.00  0.07  0.00  0.93  0.00  0.00  0.00  0.00  0.00
  YS02164001YS02001641    1.00   0.02  0.05  0.00  0.93  0.00  0.00  0.00  0.07  0.00
  YS02001641YS02001644    1.00   0.00  0.01  0.00  0.99  0.00  0.00  0.00  0.00  0.00
  YS02001647YS02001649    1.00   0.00  0.14  0.00  0.86  0.00  0.00  0.00  0.01  0.00
  YS02006553YS02006556    1.00   0.03  0.00  0.00  0.97  0.00  0.00  0.00  0.03  0.00
  YS02006556YS02006558    1.00   0.00  0.01  0.00  0.99  0.00  0.00  0.00  0.00  0.00
  YSB6556YSB1171          1.00   0.06  0.03  0.00  0.91  0.00  0.00  0.00  0.00  0.00
  YS02001907YS02006553    1.00   0.01  0.04  0.00  0.95  0.00  0.00  0.00  0.00  0.00
  YS02006558YS02006561    1.00   0.14  0.00  0.00  0.00  0.86  0.00  0.00  0.72  0.00
  YS02001633YS02163601    1.00   0.00  0.02  0.00  0.98  0.00  0.00  0.00  0.20  0.00
  YS02001644YS02001647    1.00   0.00  0.14  0.00  0.86  0.00  0.00  0.00  0.00  0.00
  YS02001745YS02001748    1.00   0.00  0.00  0.00  0.72  0.04  0.00  0.24  0.13  0.00
  YS02001748YS02001751    1.00   0.00  0.00  0.00  0.96  0.04  0.00  0.00  0.25  0.00
  YS02001751YS02001754    1.00   0.00  0.00  0.00  0.85  0.00  0.00  0.15  0.02  0.00
  YS02001754YS02001757    1.00   0.00  0.00  0.00  0.99  0.01  0.00  0.00  0.26  0.00
  YS02001882YS02001884    1.00   0.12  0.01  0.00  0.88  0.00  0.00  0.00  0.00  0.00
  YS02001884YS02001887    1.00   0.06  0.02  0.00  0.92  0.00  0.00  0.00  0.00  0.00
  YS02001890YS02001895    1.00   0.01  0.12  0.00  0.87  0.00  0.00  0.00  0.00  0.00
  YS02001895YS02001898    1.00   0.13  0.00  0.00  0.86  0.00  0.01  0.00  0.00  0.00
  YS02001898YS02001901    1.00   0.12  0.01  0.00  0.87  0.00  0.00  0.00  0.02  0.00
  YS02001901YS02001904    1.00   0.12  0.00  0.00  0.88  0.00  0.00  0.00  0.00  0.00
  YS02001904YS02001907    1.00   0.01  0.12  0.00  0.88  0.00  0.00  0.00  0.00  0.00
  YS02001887YS02001890    1.00   0.00  0.01  0.00  0.95  0.00  0.05  0.00  0.00  0.00
  YS02001652YS02001649    1.00   0.00  0.00  0.00  1.00  0.00  0.00  0.00  0.26  0.00
  YS02001655YS02001652    1.00   0.00  0.00  0.00  0.85  0.00  0.00  0.15  0.02  0.00
  YS02001658YS02001655    1.00   0.00  0.11  0.00  0.84  0.05  0.00  0.00  0.13  0.00
  YS02001661YS02001658    1.00   0.11  0.00  0.00  0.72  0.17  0.00  0.00  0.18  0.00
  YS02001664YS02001661    1.00   0.09  0.00  0.00  0.63  0.28  0.00  0.00  0.46  0.00
  YSB1154YSB6556          1.00   0.09  0.00  0.00  0.91  0.00  0.00  0.00  0.02  0.00
  YSB1174YSB1171          1.00   0.06  0.02  0.00  0.92  0.00  0.00  0.00  0.00  0.00
  YSB1171HS02004479       1.00   0.06  0.00  0.00  0.94  0.00  0.00  0.00  0.13  0.00
  HS02004881HS02006253    1.00   0.06  0.00  0.00  0.00  0.00  0.00  0.94  0.00  0.00
  YS02001793JiankangQianchi    1.00   0.00  0.00  0.00  0.04  0.95  0.00  0.00  0.02  0.00
  YS02001757CaochengTiaoxuchi    1.00   0.00  0.17  0.00  0.83  0.00  0.00  0.00  0.00  0.00
  WSF200WS02003060        1.00   0.00  0.12  0.00  0.88  0.00  0.00  0.00  0.66  0.00
  1                       1.00   0.00  0.00  0.00  0.00  1.00  0.00  0.00  0.19  0.00
  2                       1.00   1.00  0.00  0.00  0.00  0.00  0.00  0.00  0.00  0.00
  3                       1.00   0.35  0.00  0.00  0.00  0.65  0.00  0.00  0.27  0.00
  4                       1.00   1.00  0.00  0.00  0.00  0.00  0.00  0.00  0.00  0.00
  
  
  *************************
  Conduit Surcharge Summary
  *************************
  
  ----------------------------------------------------------------------------
                                                           Hours        Hours 
                         --------- Hours Full --------   Above Full   Capacity
  Conduit                Both Ends  Upstream  Dnstream   Normal Flow   Limited
  ----------------------------------------------------------------------------
  WS02006229WS02006228        0.01      0.01      0.01      0.38         0.01
  WS02006256WS02006235        3.86      3.86      6.32      3.56         0.01
  WS02006235WS02006234        0.01      0.01      0.01      3.59         0.01
  WS02006231WS02006230        0.01      0.01      0.01      4.85         0.01
  WS02006230WS02006229        0.01      0.01      0.01      5.78         0.01
  WS02006228WS02006109        0.01      0.01      0.01      0.94         0.01
  WS02006111WS02006112        0.01      0.01      0.49      0.01         0.01
  WS02004404WS02004405        0.01      0.01      0.01      4.24         0.01
  WS02003072WS02003073        0.01      0.01      0.01      0.81         0.01
  YS02001759YS02001757        5.02      5.02      5.23      0.01         0.01
  YS02001762YS02001759        4.92      4.92      5.02      0.01         0.01
  YS02001765YS02001762        4.74      4.74      4.92      0.01         0.01
  YS02001770YS02001767        4.59      4.60      4.61      0.01         0.37
  YS02001774YS02001770        4.51      4.51      4.85      0.01         0.01
  YS02001779YS02001774        4.04      4.04      4.85      0.01         0.01
  YS02001649YS02001757        4.95      4.95      5.23      0.01         0.01
  YS02001767YS02001765        4.61      4.61      4.74      0.01         0.01
  YS02001629YS02163301        4.46      4.46      4.54      0.01         0.01
  YS02001619YS02001622        3.39      3.39      3.45      0.01         0.01
  YS02001622YS02001625        3.45      3.45      4.31      0.01         0.01
  YS02001625YS02001629        3.39      3.39      4.31      0.01         0.01
  YS02163301YS02001633        4.54      4.54      4.76      0.01         0.01
  YS02163601YS02164001        4.75      4.75      4.94      0.01         0.01
  YS02164001YS02001641        4.75      4.75      4.82      0.01         0.01
  YS02001641YS02001644        4.82      4.82      4.83      0.01         0.34
  YS02001647YS02001649        4.28      4.28      4.95      0.01         0.01
  YS02001633YS02163601        4.68      4.68      4.94      0.01         0.01
  YS02001644YS02001647        4.28      4.28      4.83      0.01         0.01
  YS02001745YS02001748        0.01      0.01      2.51      0.01         0.01
  YS02001748YS02001751        2.84      2.84      3.53      0.01         0.01
  YS02001751YS02001754        3.53      3.53      4.12      0.01         0.01
  YS02001754YS02001757        4.29      4.29      5.23      0.01         0.01
  YS02001652YS02001649        4.31      4.31      4.95      0.01         0.01
  YS02001655YS02001652        3.61      3.61      4.22      0.01         0.01
  YS02001658YS02001655        2.58      2.58      3.61      0.01         0.01
  YS02001661YS02001658        0.01      0.01      2.58      0.01         0.01
  YS02001793JiankangQianchi        0.01      0.01      0.09      0.01         0.01
  YS02001757CaochengTiaoxuchi        3.11      3.11      5.23      0.01         0.01
  
  
  ***************
  Pumping Summary
  ***************
  
  ---------------------------------------------------------------------------------------------------------
                                                  Min       Avg       Max     Total     Power    % Time Off
                        Percent   Number of      Flow      Flow      Flow    Volume     Usage    Pump Curve
  Pump                 Utilized   Start-Ups       LPS       LPS       LPS  10^6 ltr     Kw-hr    Low   High
  ---------------------------------------------------------------------------------------------------------
  CC-Pump-1                0.00           0      0.00      0.00      0.00     0.000      0.00    0.0    0.0
  CC-Pump-2                0.00           0      0.00      0.00      0.00     0.000      0.00    0.0    0.0
  JK-Pump-1                4.26           1      0.00    252.73    300.00     0.179      2.80    0.0    0.0
  JK-Pump-2               97.86           1      0.00    165.58    294.40     2.869     55.45    0.0    0.0
  XR-Pump-1                4.26           1      0.00     88.26     95.00     0.086      1.01    0.0    0.0
  XR-Pump-2              100.00           1      0.00     95.00     95.00     2.679     17.49    0.0    0.0
  XR-Pump-3                0.00           0      0.00      0.00      0.00     0.000      0.00    0.0    0.0
  XR-Pump-4               97.86           1      0.00     94.52     95.00     2.593     16.47    0.0    0.0
  

  Analysis begun on:  Thu Jan  6 00:29:11 2022
  Analysis ended on:  Thu Jan  6 00:29:13 2022
  Total elapsed time: 00:00:02