
  EPA STORM WATER MANAGEMENT MODEL - VERSION 5.1 (Build 5.3.0.dev0)
  --------------------------------------------------------------

  WARNING 04: minimum elevation drop used for Conduit WS02004404WS02004405
  WARNING 03: negative offset ignored for Link YS02001904YS02001907
  
  *********************************************************
  NOTE: The summary statistics displayed in this report are
  based on results found at every computational time step,  
  not just on results from each reporting time step.
  *********************************************************
  
  ****************
  Analysis Options
  ****************
  Flow Units ............... LPS
  Process Models:
    Rainfall/Runoff ........ YES
    RDII ................... NO
    Snowmelt ............... NO
    Groundwater ............ NO
    Flow Routing ........... YES
    Ponding Allowed ........ NO
    Water Quality .......... NO
  Infiltration Method ...... HORTON
  Flow Routing Method ...... DYNWAVE
  Surcharge Method ......... EXTRAN
  Starting Date ............ 08/28/2015 08:00:00
  Ending Date .............. 08/28/2015 15:50:00
  Antecedent Dry Days ...... 8.0
  Report Time Step ......... 00:01:00
  Wet Time Step ............ 00:01:00
  Dry Time Step ............ 00:01:00
  Routing Time Step ........ 5.00 sec
  Variable Time Step ....... YES
  Maximum Trials ........... 8
  Number of Threads ........ 4
  Head Tolerance ........... 0.001500 m
  
  
  **************************        Volume         Depth
  Runoff Quantity Continuity     hectare-m            mm
  **************************     ---------       -------
  Total Precipitation ......         1.959         4.290
  Evaporation Loss .........         0.000         0.000
  Infiltration Loss ........         0.484         1.060
  Surface Runoff ...........         0.669         1.465
  Final Storage ............         0.806         1.766
  Continuity Error (%) .....        -0.017
  
  
  **************************        Volume        Volume
  Flow Routing Continuity        hectare-m      10^6 ltr
  **************************     ---------     ---------
  Dry Weather Inflow .......         0.616         6.165
  Wet Weather Inflow .......         0.669         6.687
  Groundwater Inflow .......         0.000         0.000
  RDII Inflow ..............         0.000         0.000
  External Inflow ..........         0.102         1.024
  External Outflow .........         0.884         8.836
  Flooding Loss ............         0.076         0.761
  Evaporation Loss .........         0.000         0.000
  Exfiltration Loss ........         0.000         0.000
  Initial Stored Volume ....         0.076         0.761
  Final Stored Volume ......         0.505         5.054
  Continuity Error (%) .....        -0.102
  
  
  *************************
  Highest Continuity Errors
  *************************
  Node HS02004842 (36.20%)
  Node YS02001884 (30.39%)
  Node YS02001774 (20.51%)
  Node YSB1171 (10.25%)
  Node YS02001625 (9.84%)
  
  
  ***************************
  Time-Step Critical Elements
  ***************************
  Link 3 (42.41%)
  Link YS02001793JiankangQianchi (39.20%)
  Link WS02006280WS02006229 (7.08%)
  Link WS02006256WS02006235 (1.36%)
  Link WS02006238WS02006235 (1.02%)
  
  
  ********************************
  Highest Flow Instability Indexes
  ********************************
  Link WS02006113WS02006111 (58)
  Link WS02006111WS02006112 (18)
  Link YS02001629YS02163301 (10)
  Link YS02164001YS02001641 (9)
  Link YS02001641YS02001644 (9)
  
  
  *************************
  Routing Time Step Summary
  *************************
  Minimum Time Step           :     0.51 sec
  Average Time Step           :     2.35 sec
  Maximum Time Step           :     5.00 sec
  Percent in Steady State     :     0.00
  Average Iterations per Step :     2.35
  Percent Not Converging      :     2.40
  
  
  ***************************
  Subcatchment Runoff Summary
  ***************************
  
  ------------------------------------------------------------------------------------------------------------------------------
                            Total      Total      Total      Total     Imperv       Perv      Total       Total     Peak  Runoff
                           Precip      Runon       Evap      Infil     Runoff     Runoff     Runoff      Runoff   Runoff   Coeff
  Subcatchment                 mm         mm         mm         mm         mm         mm         mm    10^6 ltr      LPS
  ------------------------------------------------------------------------------------------------------------------------------
  sub0                       4.29       0.00       0.00       0.30       2.73       0.00       2.73        0.00     0.90   0.635
  sub1                       4.29       0.00       0.00       0.47       2.57       0.00       2.57        0.02     4.48   0.598
  sub2                       4.29       0.00       0.00       1.59       1.80       0.00       1.80        0.02     3.91   0.419
  sub3                       4.29       0.00       0.00       1.59       1.77       0.00       1.77        0.04     7.91   0.412
  sub4                       4.29       0.00       0.00       0.47       2.44       0.00       2.44        0.05     8.75   0.568
  sub5                       4.29       0.00       0.00       0.30       2.68       0.00       2.68        0.03     7.96   0.625
  sub7                       4.29       0.00       0.00       0.39       2.65       0.00       2.65        0.01     2.87   0.618
  sub8                       4.29       0.00       0.00       0.39       2.64       0.00       2.64        0.02     5.03   0.616
  sub9                       4.29       0.00       0.00       0.39       2.64       0.00       2.64        0.01     3.72   0.615
  sub10                      4.29       0.00       0.00       0.34       2.66       0.00       2.66        0.03     7.98   0.620
  sub11                      4.29       0.00       0.00       0.34       2.67       0.00       2.67        0.03     9.48   0.623
  sub12                      4.29       0.00       0.00       0.56       2.54       0.00       2.54        0.02     8.21   0.593
  sub14                      4.29       0.00       0.00       0.39       2.64       0.00       2.64        0.03     7.26   0.615
  sub15                      4.29       0.00       0.00       1.29       2.03       0.00       2.03        0.03     9.82   0.472
  sub16                      4.29       0.00       0.00       1.42       1.96       0.00       1.96        0.02     7.17   0.456
  sub17                      4.29       0.00       0.00       1.37       1.98       0.00       1.98        0.02     5.77   0.462
  sub22                      4.29       0.00       0.00       1.84       1.66       0.00       1.66        0.10    32.51   0.386
  sub23                      4.29       0.00       0.00       1.59       1.83       0.00       1.83        0.09    27.76   0.427
  sub60                      4.29       0.00       0.00       0.51       1.60       0.00       1.60        0.48    40.77   0.372
  sub61                      4.29       0.00       0.00       0.73       1.76       0.00       1.76        0.54    52.21   0.410
  sub62                      4.29       0.00       0.00       0.34       1.87       0.00       1.87        0.58    53.04   0.436
  sub63                      4.29       0.00       0.00       1.24       1.58       0.00       1.58        0.48    49.15   0.369
  sub64                      4.29       0.00       0.00       0.64       1.52       0.00       1.52        0.46    38.65   0.355
  sub65                      4.29       0.00       0.00       0.56       1.54       0.00       1.54        0.47    39.15   0.359
  sub66                      4.29       0.00       0.00       1.24       1.34       0.00       1.34        0.41    35.67   0.313
  sub67                      4.29       0.00       0.00       0.34       2.11       0.00       2.11        0.65    69.44   0.492
  sub68                      4.29       0.00       0.00       0.60       1.88       0.00       1.88        0.58    58.04   0.439
  sub69                      4.29       0.00       0.00       0.64       2.09       0.00       2.09        0.49    59.02   0.487
  sub70                      4.29       2.13       0.00       2.18       2.41       0.00       2.41        0.55    43.29   0.375
  sub71                      4.29       0.00       0.00       0.34       1.77       0.00       1.77        0.42    36.75   0.413
  sub72                      4.29       0.00       0.00       0.30       1.18       0.00       1.18        0.24    16.67   0.274
  sub73                      4.29       2.35       0.00       2.26       2.35       0.00       2.35        0.55    36.86   0.354
  sub74                      4.29       0.00       0.00       3.22       0.64       0.00       0.64        0.25    33.23   0.148
  
  
  ******************
  Node Depth Summary
  ******************
  
  ---------------------------------------------------------------------------------
                                 Average  Maximum  Maximum  Time of Max    Reported
                                   Depth    Depth      HGL   Occurrence   Max Depth
  Node                 Type       Meters   Meters   Meters  days hr:min      Meters
  ---------------------------------------------------------------------------------
  WS02001211           JUNCTION     0.60     0.61     5.45     0  02:51        0.61
  WS02001212           JUNCTION     0.33     0.34     5.41     0  02:50        0.34
  WS02001213           JUNCTION     0.51     0.57     5.33     0  02:49        0.57
  WS02003069           JUNCTION     0.31     0.40     4.98     0  02:48        0.40
  WS02003072           JUNCTION     0.38     0.47     4.84     0  02:49        0.47
  WS02003073           JUNCTION     0.22     0.28     4.34     0  02:49        0.28
  WS02003060           JUNCTION     0.28     0.35     5.29     0  02:47        0.35
  WS02003066           JUNCTION     0.15     0.23     5.78     0  02:45        0.23
  WS02003059           JUNCTION     0.57     0.64     5.32     0  02:48        0.64
  WS02003067           JUNCTION     0.40     0.57     5.89     0  02:45        0.57
  WS02004401           JUNCTION     0.47     0.64     6.64     0  02:40        0.64
  WS02004402           JUNCTION     0.50     0.67     6.63     0  02:40        0.67
  WS02004403           JUNCTION     0.53     0.70     6.63     0  02:40        0.70
  WS02004404           JUNCTION     0.60     0.77     6.62     0  02:40        0.77
  WS02004406           JUNCTION     0.62     0.79     6.62     0  02:41        0.79
  WS02004409           JUNCTION     0.28     0.45     6.22     0  02:44        0.45
  WS02004410           JUNCTION     0.31     0.48     6.20     0  02:44        0.48
  WS02004411           JUNCTION     0.33     0.50     6.18     0  02:45        0.50
  WS02004412           JUNCTION     0.35     0.52     6.16     0  02:45        0.52
  WS02004413           JUNCTION     0.50     0.69     6.16     0  02:45        0.69
  WS02004405           JUNCTION     0.60     0.77     6.62     0  02:41        0.77
  WS02006109           JUNCTION     0.52     0.70     7.32     0  02:34        0.70
  WS02006110           JUNCTION     0.54     0.71     7.30     0  02:34        0.71
  WS02006111           JUNCTION     0.13     0.20     6.91     0  02:35        0.20
  WS02006112           JUNCTION     0.61     0.80     6.68     0  02:39        0.80
  WS02006113           JUNCTION     0.20     0.31     7.21     0  02:34        0.31
  WS02006115           JUNCTION     0.36     0.52     6.66     0  02:40        0.52
  WS02006116           JUNCTION     0.44     0.61     6.65     0  02:40        0.61
  WS02006230           JUNCTION     0.43     0.62     7.36     0  02:34        0.62
  WS02006231           JUNCTION     0.26     0.35     7.47     0  02:40        0.35
  WS02006232           JUNCTION     0.37     0.47     7.51     0  02:40        0.47
  WS02006234           JUNCTION     0.26     0.37     7.52     0  02:40        0.37
  WS02006235           JUNCTION     0.29     0.39     7.56     0  02:39        0.39
  WS02006238           JUNCTION     0.31     0.41     7.56     0  02:39        0.41
  WS02006240           JUNCTION     0.17     0.27     7.56     0  02:39        0.27
  WS02006242           JUNCTION     0.20     0.29     7.56     0  02:38        0.29
  WS02006243           JUNCTION     0.07     0.14     7.56     0  02:37        0.14
  WS02006245           JUNCTION     0.05     0.13     7.61     0  02:25        0.13
  WS02006247           JUNCTION     0.06     0.15     7.65     0  02:25        0.15
  WS02006248           JUNCTION     0.04     0.11     7.70     0  02:24        0.11
  WS02006249           JUNCTION     0.07     0.15     7.75     0  02:23        0.15
  WS02006239           JUNCTION     0.25     0.35     7.56     0  02:39        0.35
  WS02006251           JUNCTION     0.05     0.13     7.80     0  02:22        0.13
  WS02006252           JUNCTION     0.00     0.00     8.24     0  00:00        0.00
  WS02006253           JUNCTION     0.08     0.18     7.83     0  02:21        0.18
  WS02006256           JUNCTION     0.78     1.15     8.09     0  00:00        1.10
  WS02004138           JUNCTION     0.14     0.14     7.39     0  00:00        0.14
  WS02004407           JUNCTION     0.13     0.21     6.52     0  02:41        0.21
  WS02006228           JUNCTION     0.50     0.69     7.34     0  02:34        0.69
  WS02006229           JUNCTION     0.47     0.66     7.35     0  02:34        0.66
  WS02006280           JUNCTION     0.05     0.11     8.39     0  02:22        0.11
  WS02006284           JUNCTION     0.33     0.44     8.84     0  02:22        0.44
  WS02006287           JUNCTION     0.07     0.17     9.12     0  02:22        0.17
  WSF200               JUNCTION     0.12     0.20     5.43     0  02:45        0.20
  HS02004901           JUNCTION     0.10     0.19    10.01     0  02:20        0.19
  HS02004881           JUNCTION     0.01     0.02     9.05     0  02:21        0.02
  HS02004876           JUNCTION     0.03     0.09     9.12     0  02:21        0.09
  HS02004870           JUNCTION     0.01     0.03     9.32     0  02:21        0.03
  HS02004862           JUNCTION     0.01     0.03     9.42     0  02:23        0.03
  HS02004856           JUNCTION     0.06     0.09     9.52     0  02:22        0.09
  HS02004852           JUNCTION     0.01     0.02     9.53     0  02:23        0.02
  HS02004848           JUNCTION     0.01     0.02     9.62     0  02:20        0.02
  HS02004842           JUNCTION     0.31     0.35     9.62     0  02:19        0.35
  HS02004837           JUNCTION     0.02     0.04     9.62     0  02:19        0.04
  HS02004830           JUNCTION     0.03     0.05     9.52     0  02:20        0.05
  HS02004824           JUNCTION     0.02     0.03     9.43     0  02:23        0.03
  HS02004817           JUNCTION     0.39     0.49     9.34     0  02:22        0.49
  HS02004807           JUNCTION     0.10     0.17     9.34     0  02:22        0.17
  HS02004802           JUNCTION     0.14     0.20     9.33     0  02:22        0.20
  HS02004799           JUNCTION     0.09     0.20     9.41     0  02:20        0.20
  HS02004792           JUNCTION     0.02     0.07     9.59     0  02:19        0.07
  HS02004788           JUNCTION     0.02     0.05     9.95     0  02:21        0.05
  HS02004785           JUNCTION     0.03     0.10    10.00     0  02:21        0.10
  HS02004777           JUNCTION     0.12     0.21    10.01     0  02:20        0.21
  HS02004770           JUNCTION     0.09     0.18    10.01     0  02:20        0.18
  HS02004480           JUNCTION     0.06     0.15     9.39     0  02:21        0.15
  HS02004479           JUNCTION     0.09     0.19     9.40     0  02:21        0.19
  HS02004478           JUNCTION     0.05     0.10     9.32     0  02:22        0.10
  YS02001745           JUNCTION     0.12     0.44     7.95     0  07:50        0.44
  YS02001748           JUNCTION     0.33     0.88     7.95     0  07:50        0.88
  YS02001751           JUNCTION     0.47     1.08     7.95     0  07:50        1.08
  YS02001754           JUNCTION     0.69     1.35     7.95     0  07:50        1.35
  YS02001762           JUNCTION     0.86     1.55     7.95     0  07:50        1.55
  YS02001765           JUNCTION     0.82     1.50     7.95     0  07:50        1.50
  YS02001767           JUNCTION     0.79     1.47     7.95     0  07:50        1.47
  YS02001770           JUNCTION     0.78     1.46     7.95     0  07:50        1.46
  YS02001774           JUNCTION     0.84     1.53     7.95     0  07:50        1.53
  YS02001779           JUNCTION     0.62     1.27     7.95     0  07:50        1.27
  YS02001882           JUNCTION     0.22     0.34     7.05     0  02:54        0.34
  YS02001884           JUNCTION     0.30     0.44     7.05     0  02:55        0.44
  YS02001759           JUNCTION     0.89     1.59     7.95     0  07:50        1.59
  YS02001887           JUNCTION     0.37     0.51     7.05     0  02:55        0.51
  YS02001890           JUNCTION     0.40     0.55     7.05     0  02:55        0.55
  YS02001898           JUNCTION     0.19     0.30     7.04     0  02:56        0.30
  YS02001901           JUNCTION     0.29     0.43     7.04     0  02:56        0.43
  YS02001904           JUNCTION     0.27     0.40     7.03     0  02:56        0.40
  YS02001907           JUNCTION     0.58     0.75     7.04     0  02:57        0.75
  YS02001910           JUNCTION     0.38     0.53     7.04     0  02:57        0.53
  YS02001915           JUNCTION     0.21     0.32     7.03     0  02:56        0.32
  YS02001918           JUNCTION     0.06     0.07     7.14     0  03:04        0.07
  YS02001619           JUNCTION     0.44     1.03     7.95     0  07:50        1.03
  YS02001629           JUNCTION     0.73     1.41     7.95     0  07:50        1.41
  YS02001641           JUNCTION     0.83     1.52     7.95     0  07:50        1.52
  YS02001644           JUNCTION     0.84     1.52     7.95     0  07:50        1.52
  YS02001652           JUNCTION     0.70     1.36     7.95     0  07:50        1.36
  YS02001655           JUNCTION     0.50     1.10     7.95     0  07:50        1.10
  YS02001920           JUNCTION     0.14     0.17     7.18     0  03:03        0.17
  YS02001923           JUNCTION     0.04     0.06     7.32     0  03:02        0.06
  YS02001926           JUNCTION     0.10     0.14     7.58     0  03:02        0.14
  YS02001929           JUNCTION     0.05     0.06     7.76     0  03:01        0.06
  YS02001658           JUNCTION     0.28     0.81     7.95     0  07:50        0.81
  YS02001661           JUNCTION     0.20     0.55     7.95     0  07:50        0.55
  YS02001664           JUNCTION     0.05     0.09     8.01     0  02:47        0.09
  YS02001622           JUNCTION     0.46     1.05     7.95     0  07:50        1.05
  YS02001633           JUNCTION     0.82     1.50     7.95     0  07:50        1.50
  YS02001649           JUNCTION     0.87     1.56     7.95     0  07:50        1.56
  YS02001757           JUNCTION     0.98     1.69     7.95     0  07:50        1.69
  YS02001895           JUNCTION     0.19     0.30     7.05     0  02:55        0.30
  YS02001625           JUNCTION     0.70     1.35     7.95     0  07:50        1.35
  YS02163301           JUNCTION     0.76     1.44     7.95     0  07:50        1.44
  YS02163601           JUNCTION     0.87     1.56     7.95     0  07:50        1.56
  YS02164001           JUNCTION     0.81     1.50     7.95     0  07:50        1.50
  YS02001647           JUNCTION     0.68     1.34     7.95     0  07:50        1.34
  YSB1154              JUNCTION     0.22     0.34     9.40     0  02:21        0.34
  YSB6556              JUNCTION     0.12     0.23     9.40     0  02:21        0.23
  YSB1174              JUNCTION     0.18     0.29     9.40     0  02:21        0.29
  YSB1171              JUNCTION     0.36     0.49     9.40     0  02:21        0.49
  YS02006553           JUNCTION     0.58     0.75     7.03     0  02:57        0.75
  YS02006561           JUNCTION     0.10     0.17     6.83     0  02:56        0.17
  YS02006556           JUNCTION     0.56     0.72     7.03     0  02:56        0.72
  YS02006558           JUNCTION     0.60     0.77     7.03     0  02:56        0.77
  YS02001783           JUNCTION     0.18     0.29     6.43     0  02:57        0.29
  YS02001784           JUNCTION     0.21     0.32     6.39     0  02:57        0.32
  YS02001786           JUNCTION     0.18     0.27     6.30     0  02:57        0.27
  YS02001788           JUNCTION     0.13     0.20     6.18     0  02:58        0.20
  YS02001790           JUNCTION     0.15     0.24     5.89     0  02:58        0.24
  YS02001791           JUNCTION     0.10     0.16     5.63     0  02:58        0.16
  YS02001793           JUNCTION     0.07     0.11     4.94     0  02:58        0.11
  WS02004139           JUNCTION     0.54     0.55     5.46     0  02:51        0.55
  WSC                  OUTFALL      0.22     0.28     0.95     0  02:50        0.28
  3                    OUTFALL      0.02     0.13     6.13     0  00:00        0.10
  4                    OUTFALL      0.00     0.00     7.00     0  00:00        0.00
  5                    OUTFALL      0.00     0.00     5.00     0  00:00        0.00
  JK-storage           STORAGE      0.10     3.00     3.80     0  00:00        2.70
  CC-storage           STORAGE      0.35     0.95     7.95     0  07:50        0.95
  XR-storage           STORAGE      7.06     7.72     5.72     0  03:03        7.72
  
  
  *******************
  Node Inflow Summary
  *******************
  
  -------------------------------------------------------------------------------------------------
                                  Maximum  Maximum                  Lateral       Total        Flow
                                  Lateral    Total  Time of Max      Inflow      Inflow     Balance
                                   Inflow   Inflow   Occurrence      Volume      Volume       Error
  Node                 Type           LPS      LPS  days hr:min    10^6 ltr    10^6 ltr     Percent
  -------------------------------------------------------------------------------------------------
  WS02001211           JUNCTION      7.35   197.82     0  03:03       0.207        5.54       0.549
  WS02001212           JUNCTION      0.00   198.01     0  03:03           0        5.51       0.287
  WS02001213           JUNCTION      0.00   198.18     0  03:04           0        5.49       0.323
  WS02003069           JUNCTION      0.32   478.87     0  02:47     0.00902        8.59       0.200
  WS02003072           JUNCTION      0.00   478.85     0  02:48           0        8.57       0.271
  WS02003073           JUNCTION      1.82   480.65     0  02:49      0.0514         8.6       0.281
  WS02003060           JUNCTION     16.53   478.55     0  02:47       0.466         8.6       0.191
  WS02003066           JUNCTION      0.00   265.68     0  02:45           0        2.69       0.078
  WS02003059           JUNCTION      0.00   198.60     0  03:01           0        5.48       0.554
  WS02003067           JUNCTION      0.00   265.68     0  02:45           0         2.7       0.200
  WS02004401           JUNCTION      0.00   269.85     0  02:38           0        2.83       0.455
  WS02004402           JUNCTION      0.00   269.10     0  02:38           0        2.82       0.453
  WS02004403           JUNCTION      0.00   268.60     0  02:39           0         2.8       0.433
  WS02004404           JUNCTION      0.16   268.41     0  02:39     0.00457         2.8       0.350
  WS02004406           JUNCTION      0.00   268.28     0  02:40           0        2.77       0.868
  WS02004409           JUNCTION      0.00   268.17     0  02:41           0        2.75       0.214
  WS02004410           JUNCTION      0.00   267.25     0  02:42           0        2.74       0.278
  WS02004411           JUNCTION      0.00   266.50     0  02:43           0        2.73       0.318
  WS02004412           JUNCTION      0.00   266.05     0  02:44           0        2.72       0.390
  WS02004413           JUNCTION      0.00   265.78     0  02:44           0        2.71       0.644
  WS02004405           JUNCTION      0.04   268.31     0  02:40     0.00107        2.79       0.526
  WS02006109           JUNCTION      1.23   271.42     0  02:33      0.0347        2.88       0.481
  WS02006110           JUNCTION      0.00   271.22     0  02:33           0        2.87       0.388
  WS02006111           JUNCTION      0.00   273.11     0  02:34           0        2.85       0.063
  WS02006112           JUNCTION      5.77   274.43     0  02:34       0.017        2.87       0.686
  WS02006113           JUNCTION      0.00   271.09     0  02:34           0        2.85       0.120
  WS02006115           JUNCTION      0.00   272.65     0  02:35           0        2.85       0.326
  WS02006116           JUNCTION      0.00   270.91     0  02:37           0        2.84       0.340
  WS02006230           JUNCTION     10.28   160.12     0  02:40        0.29        2.21       0.328
  WS02006231           JUNCTION      0.00   149.86     0  02:40           0        1.93       0.178
  WS02006232           JUNCTION      0.00   149.88     0  02:39           0        1.93       0.435
  WS02006234           JUNCTION      0.00   149.94     0  02:39           0        1.94       0.020
  WS02006235           JUNCTION      0.00   166.25     0  00:01           0        1.97       0.291
  WS02006238           JUNCTION      0.00    88.92     0  00:00           0       0.135       1.656
  WS02006240           JUNCTION      0.00    40.17     0  00:02           0       0.114       1.181
  WS02006242           JUNCTION      0.00    28.67     0  00:04           0       0.105       1.533
  WS02006243           JUNCTION      0.00    24.16     0  02:28           0       0.098      -0.495
  WS02006245           JUNCTION      0.00    24.13     0  02:25           0      0.0967       0.786
  WS02006247           JUNCTION      0.00    24.16     0  02:24           0      0.0963       0.120
  WS02006248           JUNCTION      0.00    24.16     0  02:24           0      0.0963       0.030
  WS02006249           JUNCTION      0.00    24.22     0  02:22           0      0.0966       0.361
  WS02006239           JUNCTION      0.00    71.07     0  00:01           0       0.123       1.807
  WS02006251           JUNCTION      0.08    24.26     0  02:21     0.00217      0.0967       0.076
  WS02006252           JUNCTION      0.00     0.00     0  00:00           0           0       0.000 ltr
  WS02006253           JUNCTION      0.90    24.20     0  02:21     0.00221      0.0947       0.163
  WS02006256           JUNCTION      0.00   300.00     0  00:00           0        2.12       0.102
  WS02004138           JUNCTION      0.00   190.00     0  00:20           0        5.36       0.074
  WS02004407           JUNCTION      0.00   268.19     0  02:41           0        2.75       0.103
  WS02006228           JUNCTION      0.00   270.41     0  02:33           0        2.85       0.293
  WS02006229           JUNCTION      0.00   270.58     0  02:33           0        2.86       0.262
  WS02006280           JUNCTION      0.00   130.26     0  02:22           0       0.655       0.011
  WS02006284           JUNCTION      0.10   130.26     0  02:22      0.0027       0.656       0.171
  WS02006287           JUNCTION      0.00   130.17     0  02:22           0       0.654       0.106
  WSF200               JUNCTION      0.00   265.68     0  02:46           0        2.69       0.058
  HS02004901           JUNCTION      7.17     7.17     0  02:12      0.0205      0.0206       9.312
  HS02004881           JUNCTION      2.87    23.53     0  02:21     0.00892      0.0925       0.064
  HS02004876           JUNCTION      4.48    20.94     0  02:21       0.017      0.0841       0.619
  HS02004870           JUNCTION      5.03    16.59     0  02:21      0.0169      0.0672       0.157
  HS02004862           JUNCTION      4.11    11.95     0  02:21      0.0224      0.0505       0.331
  HS02004856           JUNCTION      3.72     7.89     0  02:20      0.0127      0.0295       5.101
  HS02004852           JUNCTION      0.00     4.45     0  02:21           0      0.0169       0.283
  HS02004848           JUNCTION      7.91     7.91     0  02:23      0.0398      0.0398       0.106
  HS02004842           JUNCTION      0.00     4.47     0  00:03           0      0.0359      56.734
  HS02004837           JUNCTION     14.33    17.64     0  02:18       0.208       0.231       0.353
  HS02004830           JUNCTION      0.15    17.78     0  02:20     0.00423       0.222       0.559
  HS02004824           JUNCTION      8.80    26.47     0  02:23      0.0523       0.273       0.198
  HS02004817           JUNCTION      0.60    27.07     0  02:23      0.0169       0.289       6.115
  HS02004807           JUNCTION      9.48    35.62     0  02:22       0.031       0.303       1.412
  HS02004802           JUNCTION      0.00    35.67     0  02:24           0       0.299       1.372
  HS02004799           JUNCTION      7.26    80.54     0  02:19      0.0251       0.321       0.701
  HS02004792           JUNCTION     32.79    73.56     0  02:19       0.113       0.297       0.141
  HS02004788           JUNCTION     11.49    42.89     0  02:20      0.0819       0.185       0.213
  HS02004785           JUNCTION      0.15    31.94     0  02:19     0.00423       0.105       0.456
  HS02004777           JUNCTION      0.03    32.37     0  02:18    0.000846       0.105       5.153
  HS02004770           JUNCTION     27.76    33.64     0  02:16      0.0874       0.106       3.002
  HS02004480           JUNCTION      0.00    94.80     0  02:21           0       0.371       0.186
  HS02004479           JUNCTION      0.00    14.61     0  02:22           0      0.0622       1.183
  HS02004478           JUNCTION      0.00   130.17     0  02:22           0       0.655       0.100
  YS02001745           JUNCTION     40.77    61.58     0  05:28       0.484       0.493       1.250
  YS02001748           JUNCTION      0.04   108.41     0  03:51     0.00127        0.53       3.903
  YS02001751           JUNCTION      0.01   136.31     0  03:48     0.00031       0.502       4.931
  YS02001754           JUNCTION      0.26   134.09     0  03:36     0.00733       0.479       5.557
  YS02001762           JUNCTION      0.00    89.26     0  03:15           0         0.5       4.585
  YS02001765           JUNCTION      0.00    88.25     0  03:12           0       0.503       5.221
  YS02001767           JUNCTION      0.54    83.86     0  04:04      0.0151       0.526       7.398
  YS02001770           JUNCTION     53.19    91.30     0  04:05       0.579       0.625       5.602
  YS02001774           JUNCTION      0.00    58.70     0  04:04           0       0.127      25.802
  YS02001779           JUNCTION      0.01    55.31     0  04:04    0.000141      0.0567      37.823
  YS02001882           JUNCTION      0.00     2.60     0  02:12           0     0.00355      69.256
  YS02001884           JUNCTION      0.00     7.85     0  02:08           0      0.0144      43.651
  YS02001759           JUNCTION     52.25   136.69     0  03:27       0.543        1.01       2.402
  YS02001887           JUNCTION     69.89    69.89     0  02:45       0.663        0.67       0.999
  YS02001890           JUNCTION      0.00    69.49     0  02:47           0       0.651       1.133
  YS02001898           JUNCTION      0.00    69.19     0  02:50           0       0.641       0.284
  YS02001901           JUNCTION      0.00    69.19     0  02:50           0        0.64       0.786
  YS02001904           JUNCTION      0.00    68.93     0  02:53           0        0.64       0.733
  YS02001907           JUNCTION      0.00   124.72     0  02:58           0        1.36       1.582
  YS02001910           JUNCTION      0.00    56.45     0  03:00           0       0.733       1.315
  YS02001915           JUNCTION     36.77    56.19     0  03:01       0.418       0.737       0.538
  YS02001918           JUNCTION      0.00    19.56     0  03:03           0       0.319       0.265
  YS02001619           JUNCTION     35.67    35.67     0  03:00       0.411       0.413       3.083
  YS02001629           JUNCTION      0.00    64.42     0  04:01           0       0.349       9.051
  YS02001641           JUNCTION      0.00    77.80     0  04:03           0       0.702       3.122
  YS02001644           JUNCTION     38.69   107.39     0  03:10       0.464        1.14       2.318
  YS02001652           JUNCTION      0.00    85.40     0  03:44           0       0.455       5.490
  YS02001655           JUNCTION      0.15   127.83     0  03:57     0.00434       0.482       5.450
  YS02001920           JUNCTION      2.87    19.57     0  03:02      0.0809       0.321       0.540
  YS02001923           JUNCTION      0.04    16.71     0  03:02     0.00106        0.24       0.095
  YS02001926           JUNCTION      0.05    16.71     0  03:01     0.00147       0.241       0.690
  YS02001929           JUNCTION     16.67    16.67     0  03:01       0.239       0.239       0.090
  YS02001658           JUNCTION      0.00   101.07     0  03:54           0       0.509       4.105
  YS02001661           JUNCTION      0.00    57.12     0  05:10           0       0.491       2.472
  YS02001664           JUNCTION     49.15    49.15     0  02:47       0.479       0.479       0.023
  YS02001622           JUNCTION      0.00    54.64     0  04:22           0        0.41       8.432
  YS02001633           JUNCTION     39.35    81.52     0  03:34       0.479        0.76       4.416
  YS02001649           JUNCTION      0.00   195.48     0  03:35           0         1.5       2.601
  YS02001757           JUNCTION      0.00   374.53     0  03:06           0        2.84       3.191
  YS02001895           JUNCTION      0.00    69.30     0  02:49           0       0.644       0.500
  YS02001625           JUNCTION      0.00    78.80     0  03:59           0       0.396      10.914
  YS02163301           JUNCTION      0.00    59.65     0  03:40           0       0.308       8.646
  YS02163601           JUNCTION      0.11    81.90     0  04:06      0.0031       0.727       4.361
  YS02164001           JUNCTION      0.00    81.73     0  03:21           0       0.705       3.008
  YS02001647           JUNCTION      0.00   111.94     0  03:05           0         1.1       2.684
  YSB1154              JUNCTION      7.96     7.96     0  02:17      0.0304      0.0318       4.762
  YSB6556              JUNCTION      0.00     7.83     0  02:20           0      0.0328       3.939
  YSB1174              JUNCTION      8.21     8.21     0  02:12      0.0222      0.0232       5.852
  YSB1171              JUNCTION      0.00    14.61     0  02:20           0      0.0616      11.425
  YS02006553           JUNCTION      0.00   124.86     0  03:02           0        1.35       1.030
  YS02006561           JUNCTION      0.00   183.07     0  02:56           0        1.91       0.028
  YS02006556           JUNCTION      0.00   125.02     0  03:02           0        1.35       0.738
  YS02006558           JUNCTION     58.92   183.08     0  02:56       0.604        1.93       0.223
  YS02001783           JUNCTION      0.00   183.06     0  02:56           0        1.91       0.065
  YS02001784           JUNCTION      1.06   184.12     0  02:57      0.0299        1.94       0.109
  YS02001786           JUNCTION      0.06   184.17     0  02:57     0.00159        1.93       0.105
  YS02001788           JUNCTION      0.07   184.23     0  02:58       0.002        1.93       0.060
  YS02001790           JUNCTION      0.15   184.38     0  02:58     0.00437        1.94       0.076
  YS02001791           JUNCTION      0.00   184.38     0  02:58           0        1.94       0.037
  YS02001793           JUNCTION      0.00   184.38     0  02:58           0        1.94       0.017
  WS02004139           JUNCTION      0.32   191.11     0  00:00     0.00905        5.36       0.590
  WSC                  OUTFALL       0.00   480.61     0  02:50           0        8.58       0.000
  3                    OUTFALL       0.00   250.55     0  00:00           0        0.26       0.000
  4                    OUTFALL       0.00     0.00     0  00:00           0           0       0.000 ltr
  5                    OUTFALL       0.00     0.00     0  00:00           0           0       0.000 ltr
  JK-storage           STORAGE       0.00   184.38     0  02:58           0        2.09      -1.335
  CC-storage           STORAGE       0.00   277.27     0  02:59           0        2.71       2.031
  XR-storage           STORAGE     266.77   266.77     0  02:53        6.45        7.05       0.000
  
  
  **********************
  Node Surcharge Summary
  **********************
  
  Surcharging occurs when water rises above the top of the highest conduit.
  ---------------------------------------------------------------------
                                               Max. Height   Min. Depth
                                   Hours       Above Crown    Below Rim
  Node                 Type      Surcharged         Meters       Meters
  ---------------------------------------------------------------------
  YS02001751           JUNCTION        0.84          0.076        1.124
  YS02001754           JUNCTION        2.61          0.297        0.853
  YS02001762           JUNCTION        4.00          0.555        0.595
  YS02001765           JUNCTION        3.75          0.505        0.595
  YS02001767           JUNCTION        3.59          0.466        0.564
  YS02001770           JUNCTION        3.40          0.430        0.490
  YS02001774           JUNCTION        3.90          0.533        0.517
  YS02001779           JUNCTION        2.36          0.269        0.411
  YS02001759           JUNCTION        4.16          0.591        0.619
  YS02001619           JUNCTION        0.30          0.026        0.584
  YS02001629           JUNCTION        0.30          0.026        0.444
  YS02001641           JUNCTION        3.82          0.518        0.582
  YS02001644           JUNCTION        3.83          0.523        0.397
  YS02001652           JUNCTION        2.81          0.329        0.801
  YS02001655           JUNCTION        1.12          0.105        1.095
  YS02001622           JUNCTION        0.59          0.051        0.569
  YS02001633           JUNCTION        3.66          0.481        0.579
  YS02001649           JUNCTION        4.05          0.565        0.485
  YS02001757           JUNCTION        4.64          0.694        0.516
  YS02001625           JUNCTION        2.96          0.351        0.429
  YS02163301           JUNCTION        3.44          0.438        0.592
  YS02163601           JUNCTION        4.01          0.557        0.523
  YS02164001           JUNCTION        3.73          0.497        0.603
  YS02001647           JUNCTION        2.91          0.345        0.555
  
  
  *********************
  Node Flooding Summary
  *********************
  
  Flooding refers to all water that overflows a node, whether it ponds or not.
  --------------------------------------------------------------------------
                                                             Total   Maximum
                                 Maximum   Time of Max       Flood    Ponded
                        Hours       Rate    Occurrence      Volume     Depth
  Node                 Flooded       LPS   days hr:min    10^6 ltr    Meters
  --------------------------------------------------------------------------
  XR-storage              4.77     74.91      0  03:03       0.761     0.000
  
  
  **********************
  Storage Volume Summary
  **********************
  
  --------------------------------------------------------------------------------------------------
                         Average     Avg  Evap Exfil       Maximum     Max    Time of Max    Maximum
                          Volume    Pcnt  Pcnt  Pcnt        Volume    Pcnt     Occurrence    Outflow
  Storage Unit           1000 m3    Full  Loss  Loss       1000 m3    Full    days hr:min        LPS
  --------------------------------------------------------------------------------------------------
  JK-storage               0.005       2     0     0         0.151      52       0  00:00     300.00
  CC-storage               0.981       6     0     0         2.659      17       0  07:50       0.00
  XR-storage               0.848      91     0     0         0.926     100       0  03:03     190.00
  
  
  ***********************
  Outfall Loading Summary
  ***********************
  
  -----------------------------------------------------------
                         Flow       Avg       Max       Total
                         Freq      Flow      Flow      Volume
  Outfall Node           Pcnt       LPS       LPS    10^6 ltr
  -----------------------------------------------------------
  WSC                   99.98    325.85    480.61       8.577
  3                     43.81     52.67    250.55       0.260
  4                      0.00      0.00      0.00       0.000
  5                      0.00      0.00      0.00       0.000
  -----------------------------------------------------------
  System                35.95    378.52    532.34       8.836
  
  
  ********************
  Link Flow Summary
  ********************
  
  -----------------------------------------------------------------------------
                                 Maximum  Time of Max   Maximum    Max/    Max/
                                  |Flow|   Occurrence   |Veloc|    Full    Full
  Link                 Type          LPS  days hr:min     m/sec    Flow   Depth
  -----------------------------------------------------------------------------
  WS02003066WSF200     CONDUIT    265.68     0  02:46      2.36    0.04    0.16
  WS02006287WS02006284 CONDUIT    130.16     0  02:22      1.38    0.06    0.18
  WS02006284WS02006280 CONDUIT    130.26     0  02:22      1.63    0.05    0.16
  WS02006280WS02006229 CONDUIT    130.26     0  02:22      2.61    0.03    0.11
  WS02006229WS02006228 CONDUIT    270.41     0  02:33      0.83    0.90    0.82
  WS02006256WS02006235 CONDUIT    166.25     0  00:01      2.58    1.76    1.00
  WS02006253WS02006251 CONDUIT     24.18     0  02:21      0.41    0.07    0.21
  WS02006252WS02006251 CONDUIT      0.00     0  00:00      0.00    0.00    0.00
  WS02006251WS02006249 CONDUIT     24.22     0  02:22      0.45    0.07    0.20
  WS02006249WS02006248 CONDUIT     24.16     0  02:24      0.53    0.13    0.18
  WS02006248WS02006247 CONDUIT     24.16     0  02:24      0.52    0.05    0.18
  WS02006247WS02006245 CONDUIT     24.13     0  02:25      0.47    0.19    0.19
  WS02006245WS02006243 CONDUIT     24.16     0  02:28      0.60    0.07    0.18
  WS02006243WS02006242 CONDUIT     24.08     0  02:26      0.47    0.05    0.29
  WS02006242WS02006240 CONDUIT     29.18     0  00:12      0.64    0.12    0.39
  WS02006240WS02006239 CONDUIT     42.40     0  00:11      0.58    0.13    0.41
  WS02006239WS02006238 CONDUIT     71.07     0  00:01      0.67    0.23    0.53
  WS02006238WS02006235 CONDUIT     95.49     0  00:11      1.25    0.21    0.58
  WS02006235WS02006234 CONDUIT    149.94     0  02:39      0.93    1.58    0.52
  WS02006234WS02006232 CONDUIT    149.88     0  02:39      1.13    0.30    0.60
  WS02006232WS02006231 CONDUIT    149.86     0  02:40      0.65    0.31    0.58
  WS02006231WS02006230 CONDUIT    149.85     0  02:40      0.98    2.27    0.42
  WS02006230WS02006229 CONDUIT    160.47     0  02:41      0.86    3.57    0.87
  WS02006228WS02006109 CONDUIT    270.19     0  02:33      0.75    1.18    0.86
  WS02006116WS02004401 CONDUIT    269.85     0  02:38      0.73    0.37    0.62
  WS02006115WS02006116 CONDUIT    270.91     0  02:37      0.79    0.35    0.53
  WS02006113WS02006111 CONDUIT    273.11     0  02:34      1.95    0.33    0.32
  WS02006112WS02006115 CONDUIT    272.65     0  02:35      0.51    0.16    0.65
  WS02006111WS02006112 CONDUIT    271.05     0  02:35      1.32    0.13    0.61
  WS02006110WS02006113 CONDUIT    271.09     0  02:34      0.80    0.25    0.64
  WS02006109WS02006110 CONDUIT    271.22     0  02:33      0.62    0.52    0.82
  WS02004411WS02004412 CONDUIT    266.05     0  02:44      0.66    0.38    0.51
  WS02004401WS02004402 CONDUIT    269.10     0  02:38      0.77    0.32    0.66
  WS02004413WS02003067 CONDUIT    265.68     0  02:45      0.76    0.11    0.46
  WS02004412WS02004413 CONDUIT    265.78     0  02:44      0.54    0.18    0.60
  WS02004410WS02004411 CONDUIT    266.50     0  02:43      0.70    0.36    0.49
  WS02004409WS02004410 CONDUIT    267.25     0  02:42      0.76    0.35    0.47
  WS02004407WS02004409 CONDUIT    268.17     0  02:41      1.20    0.10    0.33
  WS02004406WS02004407 CONDUIT    268.19     0  02:41      0.69    0.12    0.50
  WS02004405WS02004406 CONDUIT    268.28     0  02:40      0.66    0.53    0.78
  WS02004404WS02004405 CONDUIT    268.27     0  02:40      0.84    2.63    0.77
  WS02004403WS02004404 CONDUIT    268.25     0  02:39      0.74    0.19    0.74
  WS02004402WS02004403 CONDUIT    268.60     0  02:39      0.75    0.39    0.68
  WS02004139WS02001211 CONDUIT    190.48     0  03:03      0.69    0.24    0.44
  WS02004138WS02004139 CONDUIT    190.79     0  00:00      2.94    0.04    0.32
  WS02003067WS02003066 CONDUIT    265.68     0  02:45      0.81    0.09    0.33
  WS02001213WS02003059 CONDUIT    198.60     0  03:01      0.65    0.33    0.59
  WS02001212WS02001213 CONDUIT    198.18     0  03:04      1.03    0.31    0.30
  WS02001211WS02001212 CONDUIT    198.01     0  03:03      0.54    0.15    0.48
  WS02003072WS02003073 CONDUIT    478.83     0  02:49      1.37    1.03    0.35
  WS02003069WS02003072 CONDUIT    478.85     0  02:48      1.31    0.23    0.36
  WS02003060WS02003069 CONDUIT    478.55     0  02:47      1.58    0.19    0.31
  WS02003059WS02003060 CONDUIT    199.20     0  03:00      0.67    0.13    0.50
  HS02004901HS02004770 CONDUIT      6.32     0  02:18      0.03    0.02    0.27
  HS02004876HS02004881 CONDUIT     20.95     0  02:21      0.40    0.22    0.07
  HS02004870HS02004876 CONDUIT     16.57     0  02:21      0.28    0.01    0.08
  HS02004842HS02004848 CONDUIT      3.70     0  02:32      0.02    0.00    0.26
  HS02004837HS02004842 CONDUIT      4.47     0  00:03      0.41    0.00    0.28
  HS02004830HS02004837 CONDUIT     17.63     0  02:20      0.39    0.02    0.06
  HS02004824HS02004830 CONDUIT     17.78     0  02:20      0.43    0.02    0.06
  HS02004817HS02004824 CONDUIT     26.47     0  02:23      0.17    0.01    0.37
  HS02004770HS02004777 CONDUIT     32.34     0  02:18      0.17    0.06    0.28
  HS02004799HS02004480 CONDUIT     80.38     0  02:20      0.46    0.10    0.25
  HS02004792HS02004799 CONDUIT     73.52     0  02:20      0.54    0.05    0.20
  HS02004788HS02004792 CONDUIT     42.85     0  02:21      0.70    0.03    0.09
  HS02004785HS02004788 CONDUIT     31.80     0  02:21      0.41    0.24    0.11
  HS02004777HS02004785 CONDUIT     31.79     0  02:19      0.20    0.04    0.23
  HS02004480HS02004478 CONDUIT     94.79     0  02:21      0.79    0.40    0.17
  HS02004479HS02004480 CONDUIT     14.74     0  02:23      0.16    0.01    0.25
  HS02004862HS02004870 CONDUIT     11.91     0  02:22      0.38    0.01    0.04
  HS02004848HS02004852 CONDUIT      4.45     0  02:21      0.25    0.01    0.03
  HS02004856HS02004862 CONDUIT      7.87     0  02:22      0.27    0.01    0.04
  HS02004852HS02004856 CONDUIT      4.41     0  02:23      0.08    0.01    0.08
  HS02004802HS02004478 CONDUIT     35.83     0  02:25      0.24    0.03    0.21
  HS02004478WS02006287 CONDUIT    130.17     0  02:22      1.07    0.04    0.14
  HS02004817HS02004807 CONDUIT     27.30     0  02:26      0.08    0.02    0.47
  HS02004807HS02004802 CONDUIT     35.67     0  02:24      0.20    0.07    0.26
  YS02001759YS02001757 CONDUIT    124.37     0  03:17      0.16    0.09    1.00
  YS02001762YS02001759 CONDUIT     95.17     0  03:27      0.17    0.11    1.00
  YS02001765YS02001762 CONDUIT     89.26     0  03:15      0.22    0.08    1.00
  YS02001770YS02001767 CONDUIT     83.33     0  04:04      0.32    0.33    1.00
  YS02001774YS02001770 CONDUIT     58.70     0  04:04      0.13    0.04    1.00
  YS02001779YS02001774 CONDUIT     56.38     0  04:05      0.08    0.03    1.00
  YS02001649YS02001757 CONDUIT    178.60     0  03:43      0.23    0.11    1.00
  YS02001767YS02001765 CONDUIT     88.25     0  03:12      0.26    0.11    1.00
  YS02006561YS02001783 CONDUIT    183.06     0  02:56      1.55    0.09    0.29
  YS02001783YS02001784 CONDUIT    183.06     0  02:57      1.03    0.25    0.38
  YS02001784YS02001785 CONDUIT    184.11     0  02:57      1.08    0.43    0.37
  YS02001788YS02001790 CONDUIT    184.23     0  02:58      1.63    0.14    0.28
  YS02001790YS02001791 CONDUIT    184.38     0  02:58      1.86    0.20    0.25
  YS02001791YS02001793 CONDUIT    184.38     0  02:58      3.35    0.08    0.17
  YS02001910YS02001907 CONDUIT     56.52     0  03:01      0.49    0.03    0.63
  YS02001786YS02001788 CONDUIT    184.16     0  02:58      1.48    0.35    0.30
  YS02001915YS02001910 CONDUIT     56.45     0  03:00      0.44    0.03    0.42
  YS02001918YS02001915 CONDUIT     19.55     0  03:04      0.44    0.01    0.19
  YS02001923YS02001920 CONDUIT     16.70     0  03:02      0.33    0.01    0.11
  YS02001926YS02001923 CONDUIT     16.67     0  03:02      0.39    0.02    0.10
  YS02001929YS02001926 CONDUIT     16.66     0  03:01      0.41    0.01    0.10
  YS02001920YS02001918 CONDUIT     19.56     0  03:03      0.36    0.02    0.12
  YS02001629YS02163301 CONDUIT     59.65     0  03:40      0.09    0.07    1.00
  YS02001619YS02001622 CONDUIT     54.64     0  04:22      0.57    0.08    1.00
  YS02001622YS02001625 CONDUIT     60.29     0  05:20      0.19    0.03    1.00
  YS02001625YS02001629 CONDUIT     64.42     0  04:01      0.19    0.03    1.00
  YS02163301YS02001633 CONDUIT     48.94     0  03:34      0.10    0.05    1.00
  YS02163601YS02164001 CONDUIT     81.73     0  03:21      0.11    0.07    1.00
  YS02164001YS02001641 CONDUIT     77.80     0  04:03      0.11    0.11    1.00
  YS02001641YS02001644 CONDUIT     71.59     0  03:36      0.13    0.23    1.00
  YS02001647YS02001649 CONDUIT    138.67     0  04:06      0.19    0.07    1.00
  YS02006553YS02006556 CONDUIT    125.02     0  03:02      0.21    0.11    0.72
  YS02006556YS02006558 CONDUIT    125.12     0  03:02      0.20    0.10    0.74
  YSB6556YSB1171       CONDUIT      7.92     0  02:23      0.04    0.01    0.51
  YS02001907YS02006553 CONDUIT    124.86     0  03:02      0.17    0.15    0.81
  YS02006558YS02006561 CONDUIT    183.07     0  02:56      2.00    0.40    0.36
  YS02001633YS02163601 CONDUIT     81.79     0  04:06      0.13    0.09    1.00
  YS02001644YS02001647 CONDUIT    111.94     0  03:05      0.19    0.07    1.00
  YS02001745YS02001748 CONDUIT     80.03     0  05:28      1.22    0.03    0.62
  YS02001748YS02001751 CONDUIT    136.30     0  03:48      0.96    0.07    0.94
  YS02001751YS02001754 CONDUIT     83.71     0  03:08      0.89    0.04    1.00
  YS02001754YS02001757 CONDUIT    123.83     0  03:34      0.33    0.05    1.00
  YS02001882YS02001884 CONDUIT      2.60     0  02:12      0.06    0.00    0.36
  YS02001884YS02001887 CONDUIT      7.85     0  02:08      0.06    0.01    0.45
  YS02001890YS02001895 CONDUIT     69.30     0  02:49      0.22    0.03    0.42
  YS02001895YS02001898 CONDUIT     69.19     0  02:50      0.44    0.12    0.29
  YS02001898YS02001901 CONDUIT     69.19     0  02:50      0.27    0.04    0.36
  YS02001901YS02001904 CONDUIT     68.93     0  02:53      0.22    0.11    0.42
  YS02001904YS02001907 CONDUIT     69.02     0  02:53      0.15    0.02    0.58
  YS02001887YS02001890 CONDUIT     69.49     0  02:47      0.18    0.12    0.51
  YS02001652YS02001649 CONDUIT    112.92     0  03:55      0.30    0.06    1.00
  YS02001655YS02001652 CONDUIT     72.77     0  03:25      0.95    0.04    1.00
  YS02001658YS02001655 CONDUIT    127.67     0  03:57      1.11    0.05    0.91
  YS02001661YS02001658 CONDUIT     67.01     0  05:08      1.24    0.03    0.65
  YS02001664YS02001661 CONDUIT     49.15     0  02:47      0.85    0.02    0.29
  YSB1154YSB6556       CONDUIT      7.83     0  02:20      0.19    0.01    0.40
  YSB1174YSB1171       CONDUIT      7.44     0  02:13      0.04    0.01    0.52
  YSB1171HS02004479    CONDUIT     14.61     0  02:22      0.54    0.01    0.40
  HS02004881HS02006253 CONDUIT     23.53     0  02:21      1.37    0.00    0.02
  YS02001793JiankangQianchi CONDUIT    184.38     0  02:58     11.23    0.01    0.50
  YS02001757CaochengTiaoxuchi CONDUIT    277.27     0  02:59      0.65    0.12    0.98
  WSF200WS02003060     CONDUIT    265.72     0  02:46      1.34    0.06    0.23
  1                    CONDUIT    480.61     0  02:50      2.71    0.17    0.28
  2                    CONDUIT      0.00     0  00:00      0.00    0.00    0.00
  3                    CONDUIT    250.55     0  00:00      8.26    0.40    0.46
  4                    CONDUIT      0.00     0  00:00      0.00    0.00    0.00
  CC-Pump-1            PUMP         0.00     0  00:00              0.00
  CC-Pump-2            PUMP         0.00     0  00:00              0.00
  JK-Pump-1            PUMP       300.00     0  00:00              1.00
  JK-Pump-2            PUMP       184.38     0  02:58              0.61
  XR-Pump-1            PUMP        95.00     0  00:00              1.00
  XR-Pump-2            PUMP        95.00     0  00:00              1.00
  XR-Pump-3            PUMP         0.00     0  00:00              0.00
  XR-Pump-4            PUMP        95.00     0  00:30              1.00
  
  
  ***************************
  Flow Classification Summary
  ***************************
  
  -------------------------------------------------------------------------------------
                      Adjusted    ---------- Fraction of Time in Flow Class ---------- 
                       /Actual         Up    Down  Sub   Sup   Up    Down  Norm  Inlet 
  Conduit               Length    Dry  Dry   Dry   Crit  Crit  Crit  Crit  Ltd   Ctrl  
  -------------------------------------------------------------------------------------
  WS02003066WSF200        1.00   0.17  0.00  0.00  0.00  0.83  0.00  0.00  0.76  0.00
  WS02006287WS02006284    1.00   0.11  0.04  0.00  0.52  0.33  0.00  0.00  0.80  0.00
  WS02006284WS02006280    1.00   0.12  0.00  0.00  0.00  0.00  0.00  0.88  0.00  0.00
  WS02006280WS02006229    1.00   0.13  0.00  0.00  0.00  0.00  0.00  0.87  0.00  0.00
  WS02006229WS02006228    1.00   0.00  0.00  0.00  0.96  0.00  0.00  0.04  0.00  0.00
  WS02006256WS02006235    1.00   0.00  0.00  0.00  0.99  0.01  0.00  0.00  0.00  0.00
  WS02006253WS02006251    1.00   0.08  0.03  0.00  0.88  0.00  0.01  0.00  0.00  0.00
  WS02006252WS02006251    1.00   1.00  0.00  0.00  0.00  0.00  0.00  0.00  0.00  0.00
  WS02006251WS02006249    1.00   0.00  0.00  0.00  1.00  0.00  0.00  0.00  0.98  0.00
  WS02006249WS02006248    1.00   0.00  0.06  0.00  0.00  0.00  0.94  0.00  0.00  0.00
  WS02006248WS02006247    1.00   0.06  0.00  0.00  0.93  0.00  0.00  0.00  0.87  0.00
  WS02006247WS02006245    1.00   0.06  0.00  0.00  0.94  0.00  0.00  0.00  0.00  0.00
  WS02006245WS02006243    1.00   0.04  0.01  0.00  0.84  0.00  0.00  0.11  0.22  0.00
  WS02006243WS02006242    1.00   0.02  0.01  0.00  0.97  0.00  0.00  0.00  0.58  0.00
  WS02006242WS02006240    1.00   0.01  0.00  0.00  0.99  0.00  0.00  0.00  0.00  0.00
  WS02006240WS02006239    1.00   0.01  0.00  0.00  0.87  0.00  0.00  0.12  0.01  0.00
  WS02006239WS02006238    1.00   0.00  0.00  0.00  1.00  0.00  0.00  0.00  0.01  0.00
  WS02006238WS02006235    1.00   0.00  0.00  0.00  1.00  0.00  0.00  0.00  0.00  0.00
  WS02006235WS02006234    1.00   0.00  0.00  0.00  0.87  0.00  0.13  0.00  0.00  0.00
  WS02006234WS02006232    1.00   0.00  0.00  0.00  0.99  0.01  0.00  0.00  0.17  0.00
  WS02006232WS02006231    1.00   0.00  0.01  0.00  0.98  0.00  0.01  0.00  0.00  0.00
  WS02006231WS02006230    1.00   0.01  0.00  0.00  0.03  0.00  0.96  0.00  0.00  0.00
  WS02006230WS02006229    1.00   0.00  0.00  0.00  0.96  0.00  0.00  0.04  0.01  0.00
  WS02006228WS02006109    1.00   0.00  0.00  0.00  0.99  0.00  0.00  0.01  0.00  0.00
  WS02006116WS02004401    1.00   0.07  0.00  0.00  0.93  0.00  0.00  0.00  0.00  0.00
  WS02006115WS02006116    1.00   0.07  0.00  0.00  0.91  0.00  0.00  0.02  0.00  0.00
  WS02006113WS02006111    1.00   0.05  0.00  0.00  0.00  0.94  0.00  0.00  0.14  0.00
  WS02006112WS02006115    1.00   0.06  0.01  0.00  0.93  0.00  0.00  0.00  0.00  0.00
  WS02006111WS02006112    1.00   0.06  0.00  0.00  0.93  0.00  0.00  0.01  0.98  0.00
  WS02006110WS02006113    1.00   0.03  0.02  0.00  0.95  0.00  0.00  0.00  0.00  0.00
  WS02006109WS02006110    1.00   0.00  0.03  0.00  0.95  0.00  0.02  0.00  0.00  0.00
  WS02004411WS02004412    1.00   0.11  0.00  0.00  0.89  0.00  0.00  0.00  0.00  0.00
  WS02004401WS02004402    1.00   0.07  0.00  0.00  0.93  0.00  0.00  0.00  0.00  0.00
  WS02004413WS02003067    1.00   0.11  0.04  0.00  0.00  0.00  0.85  0.00  0.00  0.00
  WS02004412WS02004413    1.00   0.11  0.00  0.00  0.89  0.00  0.00  0.00  0.03  0.00
  WS02004410WS02004411    1.00   0.11  0.00  0.00  0.89  0.00  0.00  0.00  0.04  0.00
  WS02004409WS02004410    1.00   0.11  0.00  0.00  0.89  0.00  0.00  0.00  0.04  0.00
  WS02004407WS02004409    1.00   0.11  0.00  0.00  0.89  0.01  0.00  0.00  0.89  0.00
  WS02004406WS02004407    1.00   0.00  0.10  0.00  0.89  0.00  0.00  0.00  0.00  0.00
  WS02004405WS02004406    1.00   0.00  0.00  0.00  1.00  0.00  0.00  0.00  0.00  0.00
  WS02004404WS02004405    1.00   0.00  0.00  0.00  1.00  0.00  0.00  0.00  0.00  0.00
  WS02004403WS02004404    1.00   0.00  0.07  0.00  0.93  0.00  0.00  0.00  0.01  0.00
  WS02004402WS02004403    1.00   0.07  0.00  0.00  0.93  0.00  0.00  0.00  0.00  0.00
  WS02004139WS02001211    1.00   0.00  0.00  0.00  0.99  0.00  0.01  0.00  0.00  0.00
  WS02004138WS02004139    1.00   0.00  0.00  0.00  0.97  0.02  0.00  0.01  1.00  0.00
  WS02003067WS02003066    1.00   0.15  0.01  0.00  0.84  0.00  0.00  0.00  0.00  0.00
  WS02001213WS02003059    1.00   0.01  0.01  0.00  0.98  0.00  0.00  0.00  0.00  0.00
  WS02001212WS02001213    1.00   0.01  0.00  0.00  0.12  0.00  0.87  0.00  0.00  0.00
  WS02001211WS02001212    1.00   0.00  0.01  0.00  0.99  0.00  0.00  0.00  0.00  0.00
  WS02003072WS02003073    1.00   0.00  0.00  0.00  0.00  0.00  0.00  1.00  0.00  0.00
  WS02003069WS02003072    1.00   0.00  0.00  0.00  0.98  0.02  0.00  0.00  0.78  0.00
  WS02003060WS02003069    1.00   0.00  0.00  0.00  0.96  0.04  0.00  0.00  0.25  0.00
  WS02003059WS02003060    1.00   0.00  0.00  0.00  0.99  0.01  0.00  0.00  0.01  0.00
  HS02004901HS02004770    1.00   0.12  0.00  0.00  0.88  0.00  0.00  0.00  0.03  0.00
  HS02004876HS02004881    1.00   0.06  0.00  0.00  0.94  0.00  0.00  0.00  0.00  0.00
  HS02004870HS02004876    1.00   0.02  0.00  0.00  0.98  0.01  0.00  0.00  0.95  0.00
  HS02004842HS02004848    1.00   0.00  0.13  0.00  0.87  0.00  0.00  0.00  0.71  0.00
  HS02004837HS02004842    1.00   0.00  0.00  0.00  0.98  0.02  0.00  0.00  0.11  0.00
  HS02004830HS02004837    1.00   0.00  0.00  0.00  0.99  0.01  0.00  0.00  0.99  0.00
  HS02004824HS02004830    1.00   0.00  0.00  0.00  1.00  0.00  0.00  0.00  0.00  0.00
  HS02004817HS02004824    1.00   0.00  0.00  0.00  1.00  0.00  0.00  0.00  1.00  0.00
  HS02004770HS02004777    1.00   0.00  0.12  0.00  0.88  0.00  0.00  0.00  0.08  0.00
  HS02004799HS02004480    1.00   0.01  0.07  0.00  0.84  0.00  0.08  0.00  0.00  0.00
  HS02004792HS02004799    1.00   0.00  0.00  0.00  0.96  0.04  0.00  0.00  0.98  0.00
  HS02004788HS02004792    1.00   0.00  0.00  0.00  0.97  0.03  0.00  0.00  0.98  0.00
  HS02004785HS02004788    1.00   0.00  0.00  0.00  1.00  0.00  0.00  0.00  0.00  0.00
  HS02004777HS02004785    1.00   0.00  0.00  0.00  1.00  0.00  0.00  0.00  0.22  0.00
  HS02004480HS02004478    1.00   0.13  0.00  0.00  0.55  0.00  0.00  0.31  0.00  0.00
  HS02004479HS02004480    1.00   0.08  0.00  0.00  0.92  0.00  0.00  0.00  0.16  0.00
  HS02004862HS02004870    1.00   0.00  0.00  0.00  1.00  0.00  0.00  0.00  0.05  0.00
  HS02004848HS02004852    1.00   0.13  0.00  0.00  0.87  0.00  0.00  0.00  0.70  0.00
  HS02004856HS02004862    1.00   0.00  0.19  0.00  0.81  0.00  0.00  0.00  0.73  0.00
  HS02004852HS02004856    1.00   0.12  0.02  0.00  0.86  0.00  0.00  0.00  0.82  0.00
  HS02004802HS02004478    1.00   0.12  0.02  0.00  0.86  0.00  0.00  0.00  0.00  0.00
  HS02004478WS02006287    1.00   0.15  0.00  0.00  0.85  0.00  0.00  0.00  0.81  0.00
  HS02004817HS02004807    1.00   0.00  0.12  0.00  0.88  0.00  0.00  0.00  0.00  0.00
  HS02004807HS02004802    1.00   0.12  0.00  0.00  0.87  0.00  0.00  0.01  0.01  0.00
  YS02001759YS02001757    1.00   0.00  0.00  0.00  1.00  0.00  0.00  0.00  0.17  0.00
  YS02001762YS02001759    1.00   0.00  0.00  0.00  1.00  0.00  0.00  0.00  0.05  0.00
  YS02001765YS02001762    1.00   0.00  0.00  0.00  1.00  0.00  0.00  0.00  0.23  0.00
  YS02001770YS02001767    1.00   0.00  0.00  0.00  1.00  0.00  0.00  0.00  0.00  0.00
  YS02001774YS02001770    1.00   0.01  0.14  0.00  0.85  0.00  0.00  0.00  0.07  0.00
  YS02001779YS02001774    1.00   0.00  0.00  0.00  1.00  0.00  0.00  0.00  0.28  0.00
  YS02001649YS02001757    1.00   0.00  0.00  0.00  1.00  0.00  0.00  0.00  0.19  0.00
  YS02001767YS02001765    1.00   0.00  0.00  0.00  1.00  0.00  0.00  0.00  0.01  0.00
  YS02006561YS02001783    1.00   0.19  0.00  0.00  0.00  0.81  0.00  0.00  0.72  0.00
  YS02001783YS02001784    1.00   0.00  0.19  0.00  0.81  0.00  0.00  0.00  0.08  0.00
  YS02001784YS02001785    1.00   0.00  0.00  0.00  1.00  0.00  0.00  0.00  0.26  0.00
  YS02001788YS02001790    1.00   0.00  0.00  0.00  0.20  0.80  0.00  0.00  0.99  0.00
  YS02001790YS02001791    1.00   0.00  0.00  0.00  0.04  0.96  0.00  0.00  0.38  0.00
  YS02001791YS02001793    1.00   0.00  0.00  0.00  0.00  1.00  0.00  0.00  0.00  0.00
  YS02001910YS02001907    1.00   0.00  0.00  0.00  0.93  0.00  0.00  0.07  0.13  0.00
  YS02001786YS02001788    1.00   0.00  0.00  0.00  0.21  0.79  0.00  0.00  0.00  0.00
  YS02001915YS02001910    1.00   0.00  0.00  0.00  0.97  0.03  0.00  0.00  0.25  0.00
  YS02001918YS02001915    1.00   0.00  0.02  0.00  0.94  0.04  0.00  0.00  0.80  0.00
  YS02001923YS02001920    1.00   0.00  0.00  0.00  1.00  0.00  0.00  0.00  1.00  0.00
  YS02001926YS02001923    1.00   0.00  0.09  0.00  0.00  0.00  0.91  0.00  0.00  0.00
  YS02001929YS02001926    1.00   0.00  0.12  0.00  0.88  0.00  0.00  0.00  0.86  0.00
  YS02001920YS02001918    1.00   0.00  0.02  0.00  0.98  0.00  0.00  0.00  0.00  0.00
  YS02001629YS02163301    1.00   0.17  0.01  0.00  0.82  0.00  0.00  0.00  0.00  0.00
  YS02001619YS02001622    1.00   0.12  0.00  0.00  0.88  0.00  0.00  0.00  0.00  0.00
  YS02001622YS02001625    1.00   0.12  0.00  0.00  0.88  0.00  0.00  0.00  0.14  0.00
  YS02001625YS02001629    1.00   0.13  0.07  0.00  0.77  0.00  0.03  0.00  0.00  0.00
  YS02163301YS02001633    1.00   0.00  0.17  0.00  0.83  0.00  0.00  0.00  0.00  0.00
  YS02163601YS02164001    1.00   0.00  0.10  0.00  0.90  0.00  0.00  0.00  0.00  0.00
  YS02164001YS02001641    1.00   0.02  0.07  0.00  0.90  0.00  0.00  0.00  0.07  0.00
  YS02001641YS02001644    1.00   0.00  0.02  0.00  0.98  0.00  0.00  0.00  0.00  0.00
  YS02001647YS02001649    1.00   0.00  0.19  0.00  0.81  0.00  0.00  0.00  0.01  0.00
  YS02006553YS02006556    1.00   0.04  0.00  0.00  0.96  0.00  0.00  0.00  0.03  0.00
  YS02006556YS02006558    1.00   0.00  0.01  0.00  0.99  0.00  0.00  0.00  0.00  0.00
  YSB6556YSB1171          1.00   0.08  0.04  0.00  0.88  0.00  0.00  0.00  0.00  0.00
  YS02001907YS02006553    1.00   0.01  0.06  0.00  0.93  0.00  0.00  0.00  0.00  0.00
  YS02006558YS02006561    1.00   0.19  0.00  0.00  0.00  0.81  0.00  0.00  0.71  0.00
  YS02001633YS02163601    1.00   0.00  0.02  0.00  0.98  0.00  0.00  0.00  0.20  0.00
  YS02001644YS02001647    1.00   0.00  0.19  0.00  0.81  0.00  0.00  0.00  0.00  0.00
  YS02001745YS02001748    1.00   0.00  0.00  0.00  0.52  0.07  0.00  0.41  0.22  0.00
  YS02001748YS02001751    1.00   0.00  0.00  0.00  0.94  0.06  0.00  0.00  0.27  0.00
  YS02001751YS02001754    1.00   0.00  0.00  0.00  0.79  0.00  0.00  0.21  0.02  0.00
  YS02001754YS02001757    1.00   0.00  0.00  0.00  0.98  0.02  0.00  0.00  0.27  0.00
  YS02001882YS02001884    1.00   0.16  0.01  0.00  0.83  0.00  0.00  0.00  0.00  0.00
  YS02001884YS02001887    1.00   0.09  0.03  0.00  0.89  0.00  0.00  0.00  0.00  0.00
  YS02001890YS02001895    1.00   0.01  0.17  0.00  0.82  0.00  0.00  0.00  0.00  0.00
  YS02001895YS02001898    1.00   0.18  0.00  0.00  0.80  0.00  0.02  0.00  0.00  0.00
  YS02001898YS02001901    1.00   0.17  0.01  0.00  0.82  0.00  0.00  0.00  0.02  0.00
  YS02001901YS02001904    1.00   0.17  0.00  0.00  0.83  0.00  0.00  0.00  0.00  0.00
  YS02001904YS02001907    1.00   0.01  0.16  0.00  0.83  0.00  0.00  0.00  0.00  0.00
  YS02001887YS02001890    1.00   0.00  0.01  0.00  0.93  0.00  0.07  0.00  0.00  0.00
  YS02001652YS02001649    1.00   0.00  0.00  0.00  1.00  0.00  0.00  0.00  0.27  0.00
  YS02001655YS02001652    1.00   0.00  0.00  0.00  0.79  0.00  0.00  0.20  0.02  0.00
  YS02001658YS02001655    1.00   0.00  0.15  0.00  0.78  0.07  0.00  0.00  0.18  0.00
  YS02001661YS02001658    1.00   0.15  0.00  0.00  0.54  0.31  0.00  0.00  0.30  0.00
  YS02001664YS02001661    1.00   0.12  0.00  0.00  0.88  0.00  0.00  0.00  0.86  0.00
  YSB1154YSB6556          1.00   0.12  0.00  0.00  0.88  0.00  0.00  0.00  0.02  0.00
  YSB1174YSB1171          1.00   0.08  0.02  0.00  0.90  0.00  0.00  0.00  0.00  0.00
  YSB1171HS02004479       1.00   0.08  0.00  0.00  0.92  0.00  0.00  0.01  0.13  0.00
  HS02004881HS02006253    1.00   0.08  0.00  0.00  0.00  0.00  0.00  0.92  0.00  0.00
  YS02001793JiankangQianchi    1.00   0.00  0.01  0.00  0.06  0.93  0.00  0.00  0.02  0.00
  YS02001757CaochengTiaoxuchi    1.00   0.00  0.23  0.00  0.77  0.00  0.00  0.00  0.00  0.00
  WSF200WS02003060        1.00   0.00  0.17  0.00  0.83  0.00  0.00  0.00  0.72  0.00
  1                       1.00   0.00  0.00  0.00  0.00  1.00  0.00  0.00  0.17  0.00
  2                       1.00   1.00  0.00  0.00  0.00  0.00  0.00  0.00  0.00  0.00
  3                       1.00   0.56  0.00  0.00  0.00  0.44  0.00  0.00  0.29  0.00
  4                       1.00   1.00  0.00  0.00  0.00  0.00  0.00  0.00  0.00  0.00
  
  
  *************************
  Conduit Surcharge Summary
  *************************
  
  ----------------------------------------------------------------------------
                                                           Hours        Hours 
                         --------- Hours Full --------   Above Full   Capacity
  Conduit                Both Ends  Upstream  Dnstream   Normal Flow   Limited
  ----------------------------------------------------------------------------
  WS02006256WS02006235        2.81      2.81      6.26      2.51         0.01
  WS02006235WS02006234        0.01      0.01      0.01      2.55         0.01
  WS02006231WS02006230        0.01      0.01      0.01      3.75         0.01
  WS02006230WS02006229        0.01      0.01      0.01      5.71         0.01
  WS02006228WS02006109        0.01      0.01      0.01      0.54         0.01
  WS02004404WS02004405        0.01      0.01      0.01      3.22         0.01
  WS02003072WS02003073        0.01      0.01      0.01      0.32         0.01
  YS02001759YS02001757        4.16      4.16      4.63      0.01         0.01
  YS02001762YS02001759        4.00      4.00      4.16      0.01         0.01
  YS02001765YS02001762        3.75      3.75      4.00      0.01         0.01
  YS02001770YS02001767        3.55      3.55      3.59      0.01         0.15
  YS02001774YS02001770        3.40      3.40      3.90      0.01         0.01
  YS02001779YS02001774        2.36      2.36      3.90      0.01         0.01
  YS02001649YS02001757        4.05      4.05      4.63      0.01         0.01
  YS02001767YS02001765        3.59      3.59      3.75      0.01         0.01
  YS02001629YS02163301        3.27      3.27      3.44      0.01         0.01
  YS02001619YS02001622        0.30      0.30      0.59      0.01         0.01
  YS02001622YS02001625        0.59      0.59      2.96      0.01         0.01
  YS02001625YS02001629        0.30      0.30      2.96      0.01         0.01
  YS02163301YS02001633        3.44      3.44      3.76      0.01         0.01
  YS02163601YS02164001        3.73      3.73      4.01      0.01         0.01
  YS02164001YS02001641        3.73      3.73      3.82      0.01         0.01
  YS02001641YS02001644        3.81      3.82      3.83      0.01         0.10
  YS02001647YS02001649        2.91      2.91      4.05      0.01         0.01
  YS02001633YS02163601        3.66      3.66      4.01      0.01         0.01
  YS02001644YS02001647        2.91      2.91      3.83      0.01         0.01
  YS02001748YS02001751        0.01      0.01      0.84      0.01         0.01
  YS02001751YS02001754        0.84      0.84      2.61      0.01         0.01
  YS02001754YS02001757        2.93      2.93      4.63      0.01         0.01
  YS02001652YS02001649        3.00      3.00      4.05      0.01         0.01
  YS02001655YS02001652        1.12      1.12      2.81      0.01         0.01
  YS02001658YS02001655        0.01      0.01      1.12      0.01         0.01
  YS02001793JiankangQianchi        0.01      0.01      0.09      0.01         0.01
  YS02001757CaochengTiaoxuchi        0.01      0.01      4.63      0.01         0.01
  
  
  ***************
  Pumping Summary
  ***************
  
  ---------------------------------------------------------------------------------------------------------
                                                  Min       Avg       Max     Total     Power    % Time Off
                        Percent   Number of      Flow      Flow      Flow    Volume     Usage    Pump Curve
  Pump                 Utilized   Start-Ups       LPS       LPS       LPS  10^6 ltr     Kw-hr    Low   High
  ---------------------------------------------------------------------------------------------------------
  CC-Pump-1                0.00           0      0.00      0.00      0.00     0.000      0.00    0.0    0.0
  CC-Pump-2                0.00           0      0.00      0.00      0.00     0.000      0.00    0.0    0.0
  JK-Pump-1                6.40           1      0.00    223.80    300.00     0.180      2.81    0.0    0.0
  JK-Pump-2               95.73           1      0.00    100.87    184.38     1.934     36.79    0.0    0.0
  XR-Pump-1                6.40           1      0.00     89.60     95.00     0.143      1.68    0.0    0.0
  XR-Pump-2              100.00           1      0.00     95.00     95.00     2.679     17.80    0.0    0.0
  XR-Pump-3                0.00           0      0.00      0.00      0.00     0.000      0.00    0.0    0.0
  XR-Pump-4               95.73           1      0.00     94.49     95.00     2.536     16.12    0.0    0.0
  

  Analysis begun on:  Thu Jan  6 00:32:32 2022
  Analysis ended on:  Thu Jan  6 00:32:33 2022
  Total elapsed time: 00:00:01