
  EPA STORM WATER MANAGEMENT MODEL - VERSION 5.1 (Build 5.3.0.dev0)
  --------------------------------------------------------------

  WARNING 04: minimum elevation drop used for Conduit WS02004404WS02004405
  WARNING 03: negative offset ignored for Link YS02001904YS02001907
  
  *********************************************************
  NOTE: The summary statistics displayed in this report are
  based on results found at every computational time step,  
  not just on results from each reporting time step.
  *********************************************************
  
  ****************
  Analysis Options
  ****************
  Flow Units ............... LPS
  Process Models:
    Rainfall/Runoff ........ YES
    RDII ................... NO
    Snowmelt ............... NO
    Groundwater ............ NO
    Flow Routing ........... YES
    Ponding Allowed ........ NO
    Water Quality .......... NO
  Infiltration Method ...... HORTON
  Flow Routing Method ...... DYNWAVE
  Surcharge Method ......... EXTRAN
  Starting Date ............ 08/28/2015 08:00:00
  Ending Date .............. 08/28/2015 15:50:00
  Antecedent Dry Days ...... 8.0
  Report Time Step ......... 00:01:00
  Wet Time Step ............ 00:01:00
  Dry Time Step ............ 00:01:00
  Routing Time Step ........ 5.00 sec
  Variable Time Step ....... YES
  Maximum Trials ........... 8
  Number of Threads ........ 4
  Head Tolerance ........... 0.001500 m
  
  
  **************************        Volume         Depth
  Runoff Quantity Continuity     hectare-m            mm
  **************************     ---------       -------
  Total Precipitation ......         2.005         4.390
  Evaporation Loss .........         0.000         0.000
  Infiltration Loss ........         0.496         1.086
  Surface Runoff ...........         0.697         1.526
  Final Storage ............         0.812         1.779
  Continuity Error (%) .....        -0.017
  
  
  **************************        Volume        Volume
  Flow Routing Continuity        hectare-m      10^6 ltr
  **************************     ---------     ---------
  Dry Weather Inflow .......         0.616         6.165
  Wet Weather Inflow .......         0.697         6.966
  Groundwater Inflow .......         0.000         0.000
  RDII Inflow ..............         0.000         0.000
  External Inflow ..........         0.102         1.024
  External Outflow .........         0.893         8.932
  Flooding Loss ............         0.080         0.797
  Evaporation Loss .........         0.000         0.000
  Exfiltration Loss ........         0.000         0.000
  Initial Stored Volume ....         0.076         0.761
  Final Stored Volume ......         0.519         5.195
  Continuity Error (%) .....        -0.059
  
  
  *************************
  Highest Continuity Errors
  *************************
  Node HS02004842 (35.56%)
  Node YS02001884 (29.79%)
  Node YS02001774 (22.98%)
  Node YSB1171 (9.96%)
  Node YS02001625 (9.85%)
  
  
  ***************************
  Time-Step Critical Elements
  ***************************
  Link 3 (45.25%)
  Link YS02001793JiankangQianchi (37.24%)
  Link WS02006280WS02006229 (6.69%)
  Link WS02006256WS02006235 (1.32%)
  
  
  ********************************
  Highest Flow Instability Indexes
  ********************************
  Link WS02006113WS02006111 (58)
  Link WS02006111WS02006112 (21)
  Link YS02164001YS02001641 (9)
  Link YS02001641YS02001644 (9)
  Link YS02001644YS02001647 (9)
  
  
  *************************
  Routing Time Step Summary
  *************************
  Minimum Time Step           :     0.51 sec
  Average Time Step           :     2.28 sec
  Maximum Time Step           :     5.00 sec
  Percent in Steady State     :    -0.00
  Average Iterations per Step :     2.34
  Percent Not Converging      :     2.79
  
  
  ***************************
  Subcatchment Runoff Summary
  ***************************
  
  ------------------------------------------------------------------------------------------------------------------------------
                            Total      Total      Total      Total     Imperv       Perv      Total       Total     Peak  Runoff
                           Precip      Runon       Evap      Infil     Runoff     Runoff     Runoff      Runoff   Runoff   Coeff
  Subcatchment                 mm         mm         mm         mm         mm         mm         mm    10^6 ltr      LPS
  ------------------------------------------------------------------------------------------------------------------------------
  sub0                       4.39       0.00       0.00       0.31       2.82       0.00       2.82        0.00     0.94   0.642
  sub1                       4.39       0.00       0.00       0.48       2.65       0.00       2.65        0.02     4.66   0.605
  sub2                       4.39       0.00       0.00       1.62       1.86       0.00       1.86        0.02     4.07   0.424
  sub3                       4.39       0.00       0.00       1.62       1.83       0.00       1.83        0.04     8.25   0.417
  sub4                       4.39       0.00       0.00       0.48       2.53       0.00       2.53        0.05     9.12   0.576
  sub5                       4.39       0.00       0.00       0.31       2.77       0.00       2.77        0.03     8.28   0.632
  sub7                       4.39       0.00       0.00       0.40       2.74       0.00       2.74        0.01     2.98   0.624
  sub8                       4.39       0.00       0.00       0.40       2.73       0.00       2.73        0.02     5.22   0.622
  sub9                       4.39       0.00       0.00       0.40       2.73       0.00       2.73        0.01     3.86   0.622
  sub10                      4.39       0.00       0.00       0.35       2.75       0.00       2.75        0.03     8.30   0.626
  sub11                      4.39       0.00       0.00       0.35       2.77       0.00       2.77        0.03     9.85   0.630
  sub12                      4.39       0.00       0.00       0.57       2.63       0.00       2.63        0.02     8.52   0.599
  sub14                      4.39       0.00       0.00       0.40       2.73       0.00       2.73        0.03     7.54   0.622
  sub15                      4.39       0.00       0.00       1.32       2.10       0.00       2.10        0.04    10.20   0.477
  sub16                      4.39       0.00       0.00       1.45       2.02       0.00       2.02        0.02     7.45   0.461
  sub17                      4.39       0.00       0.00       1.40       2.05       0.00       2.05        0.02     5.99   0.467
  sub22                      4.39       0.00       0.00       1.89       1.71       0.00       1.71        0.11    33.77   0.391
  sub23                      4.39       0.00       0.00       1.62       1.90       0.00       1.90        0.09    28.83   0.432
  sub60                      4.39       0.00       0.00       0.53       1.67       0.00       1.67        0.51    42.88   0.380
  sub61                      4.39       0.00       0.00       0.75       1.83       0.00       1.83        0.56    54.81   0.417
  sub62                      4.39       0.00       0.00       0.35       1.95       0.00       1.95        0.60    55.71   0.444
  sub63                      4.39       0.00       0.00       1.27       1.65       0.00       1.65        0.50    51.54   0.375
  sub64                      4.39       0.00       0.00       0.66       1.59       0.00       1.59        0.48    40.66   0.362
  sub65                      4.39       0.00       0.00       0.57       1.61       0.00       1.61        0.49    41.19   0.366
  sub66                      4.39       0.00       0.00       1.27       1.40       0.00       1.40        0.43    37.51   0.319
  sub67                      4.39       0.00       0.00       0.35       2.19       0.00       2.19        0.68    72.79   0.500
  sub68                      4.39       0.00       0.00       0.61       1.96       0.00       1.96        0.60    60.89   0.447
  sub69                      4.39       0.00       0.00       0.66       2.17       0.00       2.17        0.51    61.77   0.494
  sub70                      4.39       2.21       0.00       2.25       2.52       0.00       2.52        0.58    45.67   0.381
  sub71                      4.39       0.00       0.00       0.35       1.85       0.00       1.85        0.44    38.63   0.420
  sub72                      4.39       0.00       0.00       0.31       1.23       0.00       1.23        0.25    17.56   0.280
  sub73                      4.39       2.45       0.00       2.33       2.46       0.00       2.46        0.58    38.88   0.360
  sub74                      4.39       0.00       0.00       3.29       0.66       0.00       0.66        0.26    34.75   0.150
  
  
  ******************
  Node Depth Summary
  ******************
  
  ---------------------------------------------------------------------------------
                                 Average  Maximum  Maximum  Time of Max    Reported
                                   Depth    Depth      HGL   Occurrence   Max Depth
  Node                 Type       Meters   Meters   Meters  days hr:min      Meters
  ---------------------------------------------------------------------------------
  WS02001211           JUNCTION     0.60     0.61     5.45     0  02:51        0.61
  WS02001212           JUNCTION     0.33     0.34     5.41     0  02:49        0.34
  WS02001213           JUNCTION     0.52     0.57     5.34     0  02:48        0.57
  WS02003069           JUNCTION     0.32     0.40     4.98     0  02:47        0.40
  WS02003072           JUNCTION     0.38     0.47     4.84     0  02:48        0.47
  WS02003073           JUNCTION     0.22     0.28     4.34     0  02:49        0.28
  WS02003060           JUNCTION     0.29     0.36     5.29     0  02:46        0.36
  WS02003066           JUNCTION     0.15     0.23     5.78     0  02:45        0.23
  WS02003059           JUNCTION     0.57     0.64     5.32     0  02:48        0.64
  WS02003067           JUNCTION     0.40     0.57     5.89     0  02:44        0.57
  WS02004401           JUNCTION     0.48     0.64     6.64     0  02:40        0.64
  WS02004402           JUNCTION     0.51     0.68     6.64     0  02:40        0.68
  WS02004403           JUNCTION     0.53     0.70     6.63     0  02:40        0.70
  WS02004404           JUNCTION     0.61     0.78     6.63     0  02:40        0.78
  WS02004406           JUNCTION     0.62     0.79     6.62     0  02:40        0.79
  WS02004409           JUNCTION     0.29     0.46     6.23     0  02:43        0.46
  WS02004410           JUNCTION     0.31     0.48     6.20     0  02:44        0.48
  WS02004411           JUNCTION     0.34     0.50     6.18     0  02:44        0.50
  WS02004412           JUNCTION     0.36     0.52     6.16     0  02:44        0.52
  WS02004413           JUNCTION     0.51     0.69     6.16     0  02:44        0.69
  WS02004405           JUNCTION     0.61     0.78     6.63     0  02:40        0.78
  WS02006109           JUNCTION     0.53     0.71     7.33     0  02:33        0.71
  WS02006110           JUNCTION     0.54     0.72     7.30     0  02:33        0.72
  WS02006111           JUNCTION     0.14     0.21     6.91     0  02:34        0.21
  WS02006112           JUNCTION     0.61     0.81     6.69     0  02:39        0.81
  WS02006113           JUNCTION     0.20     0.32     7.21     0  02:34        0.32
  WS02006115           JUNCTION     0.36     0.53     6.67     0  02:39        0.53
  WS02006116           JUNCTION     0.44     0.61     6.65     0  02:39        0.61
  WS02006230           JUNCTION     0.44     0.62     7.37     0  02:33        0.62
  WS02006231           JUNCTION     0.26     0.35     7.47     0  02:37        0.35
  WS02006232           JUNCTION     0.37     0.47     7.51     0  02:38        0.47
  WS02006234           JUNCTION     0.27     0.37     7.53     0  02:38        0.37
  WS02006235           JUNCTION     0.30     0.40     7.56     0  02:38        0.40
  WS02006238           JUNCTION     0.32     0.42     7.56     0  02:38        0.42
  WS02006240           JUNCTION     0.18     0.27     7.56     0  02:38        0.27
  WS02006242           JUNCTION     0.20     0.29     7.56     0  02:37        0.29
  WS02006243           JUNCTION     0.07     0.15     7.57     0  02:37        0.15
  WS02006245           JUNCTION     0.05     0.13     7.62     0  02:25        0.13
  WS02006247           JUNCTION     0.07     0.15     7.65     0  02:24        0.15
  WS02006248           JUNCTION     0.04     0.11     7.70     0  02:24        0.11
  WS02006249           JUNCTION     0.07     0.16     7.75     0  02:23        0.16
  WS02006239           JUNCTION     0.25     0.35     7.56     0  02:38        0.35
  WS02006251           JUNCTION     0.05     0.13     7.80     0  02:22        0.13
  WS02006252           JUNCTION     0.00     0.00     8.24     0  00:00        0.00
  WS02006253           JUNCTION     0.09     0.18     7.83     0  02:21        0.18
  WS02006256           JUNCTION     0.80     1.15     8.09     0  00:00        1.10
  WS02004138           JUNCTION     0.14     0.14     7.39     0  00:00        0.14
  WS02004407           JUNCTION     0.13     0.21     6.52     0  02:40        0.21
  WS02006228           JUNCTION     0.51     0.69     7.35     0  02:33        0.69
  WS02006229           JUNCTION     0.47     0.66     7.36     0  02:33        0.66
  WS02006280           JUNCTION     0.05     0.12     8.39     0  02:22        0.12
  WS02006284           JUNCTION     0.33     0.44     8.84     0  02:22        0.44
  WS02006287           JUNCTION     0.07     0.17     9.12     0  02:22        0.17
  WSF200               JUNCTION     0.12     0.21     5.44     0  02:44        0.21
  HS02004901           JUNCTION     0.10     0.19    10.02     0  02:20        0.19
  HS02004881           JUNCTION     0.01     0.02     9.05     0  02:21        0.02
  HS02004876           JUNCTION     0.04     0.09     9.12     0  02:21        0.09
  HS02004870           JUNCTION     0.01     0.03     9.32     0  02:21        0.03
  HS02004862           JUNCTION     0.01     0.03     9.42     0  02:22        0.03
  HS02004856           JUNCTION     0.07     0.09     9.52     0  02:21        0.09
  HS02004852           JUNCTION     0.01     0.02     9.53     0  02:22        0.02
  HS02004848           JUNCTION     0.01     0.02     9.62     0  02:20        0.02
  HS02004842           JUNCTION     0.31     0.35     9.62     0  02:19        0.35
  HS02004837           JUNCTION     0.03     0.04     9.62     0  02:19        0.04
  HS02004830           JUNCTION     0.03     0.05     9.52     0  02:20        0.05
  HS02004824           JUNCTION     0.02     0.03     9.43     0  02:23        0.03
  HS02004817           JUNCTION     0.39     0.49     9.34     0  02:22        0.49
  HS02004807           JUNCTION     0.10     0.17     9.34     0  02:22        0.17
  HS02004802           JUNCTION     0.14     0.21     9.34     0  02:22        0.21
  HS02004799           JUNCTION     0.10     0.21     9.42     0  02:20        0.21
  HS02004792           JUNCTION     0.02     0.07     9.60     0  02:19        0.07
  HS02004788           JUNCTION     0.02     0.05     9.95     0  02:21        0.05
  HS02004785           JUNCTION     0.03     0.11    10.01     0  02:21        0.11
  HS02004777           JUNCTION     0.12     0.22    10.02     0  02:20        0.22
  HS02004770           JUNCTION     0.09     0.19    10.02     0  02:20        0.19
  HS02004480           JUNCTION     0.06     0.16     9.40     0  02:21        0.16
  HS02004479           JUNCTION     0.09     0.19     9.40     0  02:21        0.19
  HS02004478           JUNCTION     0.05     0.10     9.33     0  02:22        0.10
  YS02001745           JUNCTION     0.13     0.49     8.00     0  07:50        0.49
  YS02001748           JUNCTION     0.34     0.93     8.00     0  07:50        0.93
  YS02001751           JUNCTION     0.49     1.12     8.00     0  07:50        1.12
  YS02001754           JUNCTION     0.71     1.39     8.00     0  07:50        1.39
  YS02001762           JUNCTION     0.88     1.60     8.00     0  07:50        1.60
  YS02001765           JUNCTION     0.84     1.55     8.00     0  07:50        1.55
  YS02001767           JUNCTION     0.81     1.51     8.00     0  07:50        1.51
  YS02001770           JUNCTION     0.81     1.51     8.00     0  07:50        1.51
  YS02001774           JUNCTION     0.86     1.58     8.00     0  07:50        1.58
  YS02001779           JUNCTION     0.65     1.32     8.00     0  07:50        1.32
  YS02001882           JUNCTION     0.22     0.34     7.06     0  02:56        0.34
  YS02001884           JUNCTION     0.31     0.44     7.06     0  02:55        0.44
  YS02001759           JUNCTION     0.91     1.64     8.00     0  07:50        1.64
  YS02001887           JUNCTION     0.38     0.52     7.06     0  02:55        0.52
  YS02001890           JUNCTION     0.41     0.55     7.06     0  02:56        0.55
  YS02001898           JUNCTION     0.20     0.31     7.04     0  02:58        0.31
  YS02001901           JUNCTION     0.30     0.43     7.04     0  02:57        0.43
  YS02001904           JUNCTION     0.28     0.41     7.04     0  02:57        0.41
  YS02001907           JUNCTION     0.59     0.75     7.04     0  02:58        0.75
  YS02001910           JUNCTION     0.39     0.54     7.04     0  02:56        0.54
  YS02001915           JUNCTION     0.21     0.32     7.04     0  02:57        0.32
  YS02001918           JUNCTION     0.06     0.07     7.14     0  03:04        0.07
  YS02001619           JUNCTION     0.46     1.07     8.00     0  07:50        1.07
  YS02001629           JUNCTION     0.76     1.45     8.00     0  07:50        1.45
  YS02001641           JUNCTION     0.85     1.57     8.00     0  07:50        1.57
  YS02001644           JUNCTION     0.86     1.57     8.00     0  07:50        1.57
  YS02001652           JUNCTION     0.72     1.41     8.00     0  07:50        1.41
  YS02001655           JUNCTION     0.52     1.15     8.00     0  07:50        1.15
  YS02001920           JUNCTION     0.15     0.17     7.18     0  03:03        0.17
  YS02001923           JUNCTION     0.05     0.06     7.32     0  03:02        0.06
  YS02001926           JUNCTION     0.11     0.14     7.58     0  03:02        0.14
  YS02001929           JUNCTION     0.05     0.06     7.76     0  03:01        0.06
  YS02001658           JUNCTION     0.30     0.86     8.00     0  07:50        0.86
  YS02001661           JUNCTION     0.21     0.60     8.00     0  07:50        0.60
  YS02001664           JUNCTION     0.06     0.09     8.01     0  02:47        0.09
  YS02001622           JUNCTION     0.48     1.10     8.00     0  07:50        1.10
  YS02001633           JUNCTION     0.84     1.55     8.00     0  07:50        1.55
  YS02001649           JUNCTION     0.89     1.61     8.00     0  07:50        1.61
  YS02001757           JUNCTION     1.01     1.74     8.00     0  07:50        1.74
  YS02001895           JUNCTION     0.19     0.31     7.05     0  02:56        0.31
  YS02001625           JUNCTION     0.72     1.40     8.00     0  07:50        1.40
  YS02163301           JUNCTION     0.78     1.49     8.00     0  07:50        1.49
  YS02163601           JUNCTION     0.89     1.61     8.00     0  07:50        1.61
  YS02164001           JUNCTION     0.83     1.55     8.00     0  07:50        1.55
  YS02001647           JUNCTION     0.71     1.39     8.00     0  07:50        1.39
  YSB1154              JUNCTION     0.22     0.34     9.40     0  02:21        0.34
  YSB6556              JUNCTION     0.12     0.23     9.40     0  02:20        0.23
  YSB1174              JUNCTION     0.18     0.29     9.40     0  02:21        0.29
  YSB1171              JUNCTION     0.37     0.50     9.40     0  02:21        0.50
  YS02006553           JUNCTION     0.59     0.76     7.04     0  02:57        0.76
  YS02006561           JUNCTION     0.11     0.17     6.83     0  02:57        0.17
  YS02006556           JUNCTION     0.57     0.73     7.04     0  02:57        0.73
  YS02006558           JUNCTION     0.61     0.77     7.04     0  02:57        0.77
  YS02001783           JUNCTION     0.18     0.30     6.44     0  02:57        0.30
  YS02001784           JUNCTION     0.22     0.33     6.40     0  02:58        0.33
  YS02001786           JUNCTION     0.18     0.28     6.31     0  02:58        0.28
  YS02001788           JUNCTION     0.13     0.20     6.18     0  02:58        0.20
  YS02001790           JUNCTION     0.16     0.25     5.89     0  02:59        0.25
  YS02001791           JUNCTION     0.10     0.16     5.63     0  02:59        0.16
  YS02001793           JUNCTION     0.07     0.11     4.94     0  02:59        0.11
  WS02004139           JUNCTION     0.54     0.55     5.46     0  02:51        0.55
  WSC                  OUTFALL      0.22     0.28     0.95     0  02:49        0.28
  3                    OUTFALL      0.03     0.13     6.13     0  00:00        0.10
  4                    OUTFALL      0.00     0.00     7.00     0  00:00        0.00
  5                    OUTFALL      0.00     0.00     5.00     0  00:00        0.00
  JK-storage           STORAGE      0.09     3.00     3.80     0  00:00        2.70
  CC-storage           STORAGE      0.37     1.00     8.00     0  07:50        1.00
  XR-storage           STORAGE      7.08     7.72     5.72     0  03:01        7.72
  
  
  *******************
  Node Inflow Summary
  *******************
  
  -------------------------------------------------------------------------------------------------
                                  Maximum  Maximum                  Lateral       Total        Flow
                                  Lateral    Total  Time of Max      Inflow      Inflow     Balance
                                   Inflow   Inflow   Occurrence      Volume      Volume       Error
  Node                 Type           LPS      LPS  days hr:min    10^6 ltr    10^6 ltr     Percent
  -------------------------------------------------------------------------------------------------
  WS02001211           JUNCTION      7.35   197.83     0  03:05       0.207        5.54       0.549
  WS02001212           JUNCTION      0.00   198.03     0  03:04           0        5.51       0.287
  WS02001213           JUNCTION      0.00   198.21     0  03:03           0        5.49       0.323
  WS02003069           JUNCTION      0.32   485.20     0  02:47     0.00902        8.65       0.199
  WS02003072           JUNCTION      0.00   485.18     0  02:47           0        8.63       0.270
  WS02003073           JUNCTION      1.82   486.98     0  02:48      0.0514        8.66       0.280
  WS02003060           JUNCTION     16.53   484.88     0  02:46       0.466        8.66       0.190
  WS02003066           JUNCTION      0.00   272.20     0  02:45           0        2.75       0.077
  WS02003059           JUNCTION      0.00   198.66     0  03:03           0        5.48       0.554
  WS02003067           JUNCTION      0.00   272.20     0  02:44           0        2.75       0.197
  WS02004401           JUNCTION      0.00   276.10     0  02:37           0        2.89       0.447
  WS02004402           JUNCTION      0.00   275.48     0  02:38           0        2.87       0.445
  WS02004403           JUNCTION      0.00   275.11     0  02:39           0        2.86       0.426
  WS02004404           JUNCTION      0.16   275.03     0  02:39     0.00457        2.85       0.344
  WS02004406           JUNCTION      0.00   274.86     0  02:40           0        2.83       0.853
  WS02004409           JUNCTION      0.00   274.79     0  02:40           0         2.8       0.212
  WS02004410           JUNCTION      0.00   273.87     0  02:41           0         2.8       0.274
  WS02004411           JUNCTION      0.00   273.13     0  02:42           0        2.79       0.314
  WS02004412           JUNCTION      0.00   272.63     0  02:43           0        2.78       0.384
  WS02004413           JUNCTION      0.00   272.31     0  02:43           0        2.77       0.633
  WS02004405           JUNCTION      0.04   274.95     0  02:39     0.00107        2.84       0.516
  WS02006109           JUNCTION      1.23   277.86     0  02:32      0.0347        2.94       0.472
  WS02006110           JUNCTION      0.00   277.80     0  02:33           0        2.92       0.382
  WS02006111           JUNCTION      0.00   280.58     0  02:33           0        2.91       0.064
  WS02006112           JUNCTION      5.99   281.27     0  02:34      0.0176        2.92       0.674
  WS02006113           JUNCTION      0.00   277.69     0  02:33           0        2.91       0.118
  WS02006115           JUNCTION      0.00   279.27     0  02:35           0        2.91       0.322
  WS02006116           JUNCTION      0.00   277.27     0  02:36           0         2.9       0.335
  WS02006230           JUNCTION     10.28   161.77     0  02:38        0.29        2.26       0.334
  WS02006231           JUNCTION      0.00   151.43     0  02:39           0        1.97       0.160
  WS02006232           JUNCTION      0.00   151.38     0  02:39           0        1.98       0.429
  WS02006234           JUNCTION      0.00   151.32     0  02:39           0        1.98       0.021
  WS02006235           JUNCTION      0.00   166.25     0  00:01           0        2.01       0.288
  WS02006238           JUNCTION      0.00    88.92     0  00:00           0       0.138       1.642
  WS02006240           JUNCTION      0.00    40.17     0  00:02           0       0.117       1.191
  WS02006242           JUNCTION      0.00    28.67     0  00:04           0       0.109       1.533
  WS02006243           JUNCTION      0.00    25.24     0  02:27           0       0.101      -0.511
  WS02006245           JUNCTION      0.00    25.15     0  02:24           0         0.1       0.783
  WS02006247           JUNCTION      0.00    25.18     0  02:24           0      0.0997       0.116
  WS02006248           JUNCTION      0.00    25.18     0  02:23           0      0.0996       0.028
  WS02006249           JUNCTION      0.00    25.25     0  02:22           0         0.1       0.350
  WS02006239           JUNCTION      0.00    71.07     0  00:01           0       0.127       1.796
  WS02006251           JUNCTION      0.08    25.28     0  02:21     0.00217         0.1       0.073
  WS02006252           JUNCTION      0.00     0.00     0  00:00           0           0       0.000 ltr
  WS02006253           JUNCTION      0.94    25.22     0  02:21     0.00228       0.098       0.157
  WS02006256           JUNCTION      0.00   300.00     0  00:00           0        2.19       0.099
  WS02004138           JUNCTION      0.00   190.00     0  00:20           0        5.36       0.074
  WS02004407           JUNCTION      0.00   274.81     0  02:40           0        2.81       0.102
  WS02006228           JUNCTION      0.00   276.87     0  02:32           0        2.91       0.289
  WS02006229           JUNCTION      0.00   277.04     0  02:32           0        2.92       0.260
  WS02006280           JUNCTION      0.00   135.20     0  02:22           0       0.671       0.011
  WS02006284           JUNCTION      0.10   135.20     0  02:22      0.0027       0.672       0.166
  WS02006287           JUNCTION      0.00   135.11     0  02:22           0        0.67       0.104
  WSF200               JUNCTION      0.00   272.20     0  02:45           0        2.75       0.058
  HS02004901           JUNCTION      7.45     7.45     0  02:12      0.0212      0.0213       8.978
  HS02004881           JUNCTION      2.98    24.53     0  02:21     0.00923      0.0958       0.062
  HS02004876           JUNCTION      4.66    21.83     0  02:21      0.0176      0.0871       0.599
  HS02004870           JUNCTION      5.22    17.30     0  02:20      0.0174      0.0696       0.152
  HS02004862           JUNCTION      4.27    12.48     0  02:21       0.023      0.0523       0.320
  HS02004856           JUNCTION      3.86     8.26     0  02:20      0.0131      0.0307       4.898
  HS02004852           JUNCTION      0.00     4.68     0  02:21           0      0.0177       0.272
  HS02004848           JUNCTION      8.25     8.25     0  02:23      0.0412      0.0412       0.103
  HS02004842           JUNCTION      0.00     4.47     0  00:03           0      0.0366      55.185
  HS02004837           JUNCTION     14.65    18.04     0  02:19       0.209       0.233       0.350
  HS02004830           JUNCTION      0.15    18.19     0  02:19     0.00423       0.223       0.555
  HS02004824           JUNCTION      9.17    27.24     0  02:23      0.0541       0.276       0.195
  HS02004817           JUNCTION      0.60    27.84     0  02:23      0.0169       0.293       6.038
  HS02004807           JUNCTION      9.85    36.73     0  02:22      0.0321       0.308       1.390
  HS02004802           JUNCTION      0.00    36.80     0  02:23           0       0.304       1.351
  HS02004799           JUNCTION      7.54    83.80     0  02:19       0.026       0.331       0.681
  HS02004792           JUNCTION     34.05    76.53     0  02:19       0.116       0.305       0.137
  HS02004788           JUNCTION     11.87    44.61     0  02:20      0.0831        0.19       0.207
  HS02004785           JUNCTION      0.15    33.27     0  02:19     0.00423       0.109       0.441
  HS02004777           JUNCTION      0.03    33.71     0  02:18    0.000846       0.109       4.970
  HS02004770           JUNCTION     28.83    34.99     0  02:15      0.0904        0.11       2.898
  HS02004480           JUNCTION      0.00    98.64     0  02:20           0       0.382       0.181
  HS02004479           JUNCTION      0.00    15.21     0  02:22           0       0.064       1.150
  HS02004478           JUNCTION      0.00   135.11     0  02:21           0       0.671       0.097
  YS02001745           JUNCTION     42.89    61.50     0  05:19       0.505       0.518       1.336
  YS02001748           JUNCTION      0.04   113.62     0  03:42     0.00127       0.553       3.916
  YS02001751           JUNCTION      0.01   142.13     0  03:42     0.00031        0.52       4.807
  YS02001754           JUNCTION      0.26   124.27     0  03:33     0.00733       0.493       5.360
  YS02001762           JUNCTION      0.00    96.16     0  03:12           0       0.523       4.389
  YS02001765           JUNCTION      0.00    88.92     0  03:11           0       0.525       4.980
  YS02001767           JUNCTION      0.54    90.09     0  03:58      0.0151       0.548       7.046
  YS02001770           JUNCTION     55.86    94.15     0  03:57       0.603       0.641       5.436
  YS02001774           JUNCTION      0.00    60.48     0  03:57           0       0.113      29.833
  YS02001779           JUNCTION      0.01    57.85     0  03:58    0.000141      0.0494      46.453
  YS02001882           JUNCTION      0.00     2.68     0  02:12           0     0.00365      67.147
  YS02001884           JUNCTION      0.00     8.12     0  02:08           0      0.0148      42.429
  YS02001759           JUNCTION     54.85   144.93     0  03:23       0.566        1.05       2.300
  YS02001887           JUNCTION     73.24    73.24     0  02:45       0.689       0.696       0.968
  YS02001890           JUNCTION      0.00    72.85     0  02:49           0       0.677       1.096
  YS02001898           JUNCTION      0.00    72.53     0  02:51           0       0.666       0.277
  YS02001901           JUNCTION      0.00    72.53     0  02:51           0       0.666       0.762
  YS02001904           JUNCTION      0.00    72.26     0  02:53           0       0.666       0.710
  YS02001907           JUNCTION      0.00   130.78     0  02:59           0        1.42       1.525
  YS02001910           JUNCTION      0.00    59.25     0  03:01           0       0.762       1.271
  YS02001915           JUNCTION     38.65    58.95     0  03:01       0.436       0.765       0.524
  YS02001918           JUNCTION      0.00    20.45     0  03:03           0        0.33       0.262
  YS02001619           JUNCTION     37.51    37.52     0  04:15       0.429        0.43       2.999
  YS02001629           JUNCTION      0.00    74.02     0  03:57           0        0.36       8.894
  YS02001641           JUNCTION      0.00    86.03     0  03:56           0       0.738       2.972
  YS02001644           JUNCTION     40.70   119.92     0  03:10       0.484        1.19       2.224
  YS02001652           JUNCTION      0.00    89.65     0  03:37           0        0.47       5.411
  YS02001655           JUNCTION      0.15   132.80     0  03:49     0.00434       0.493       5.364
  YS02001920           JUNCTION      2.87    20.46     0  03:02      0.0809       0.332       0.529
  YS02001923           JUNCTION      0.04    17.59     0  03:02     0.00106       0.251       0.093
  YS02001926           JUNCTION      0.05    17.60     0  03:01     0.00147       0.252       0.674
  YS02001929           JUNCTION     17.56    17.56     0  03:01       0.251       0.251       0.088
  YS02001658           JUNCTION      0.00   105.03     0  03:51           0       0.513       4.297
  YS02001661           JUNCTION      0.00    51.54     0  02:47           0       0.503       2.688
  YS02001664           JUNCTION     51.54    51.54     0  02:47       0.499       0.499       0.108
  YS02001622           JUNCTION      0.00    59.46     0  04:15           0       0.418       8.308
  YS02001633           JUNCTION     41.39    94.90     0  03:39       0.499       0.799       4.218
  YS02001649           JUNCTION      0.00   209.53     0  03:21           0        1.57       2.491
  YS02001757           JUNCTION      0.00   386.45     0  03:04           0        2.97       3.132
  YS02001895           JUNCTION      0.00    72.62     0  02:48           0        0.67       0.486
  YS02001625           JUNCTION      0.00    83.46     0  03:54           0       0.397      10.922
  YS02163301           JUNCTION      0.00    75.76     0  03:41           0       0.327       8.122
  YS02163601           JUNCTION      0.11    90.29     0  03:59      0.0031       0.764       4.154
  YS02164001           JUNCTION      0.00    89.85     0  03:59           0       0.742       2.950
  YS02001647           JUNCTION      0.00   116.73     0  03:04           0        1.16       2.590
  YSB1154              JUNCTION      8.28     8.28     0  02:17      0.0314      0.0328       4.601
  YSB6556              JUNCTION      0.00     8.14     0  02:20           0      0.0339       3.811
  YSB1174              JUNCTION      8.52     8.52     0  02:12       0.023       0.024       5.657
  YSB1171              JUNCTION      0.00    15.19     0  02:19           0      0.0634      11.062
  YS02006553           JUNCTION      0.00   130.95     0  03:02           0        1.41       0.993
  YS02006561           JUNCTION      0.00   191.97     0  02:57           0        1.98       0.027
  YS02006556           JUNCTION      0.00   131.13     0  03:03           0        1.41       0.712
  YS02006558           JUNCTION     61.77   191.98     0  02:57       0.628        2.01       0.216
  YS02001783           JUNCTION      0.00   191.97     0  02:57           0        1.98       0.063
  YS02001784           JUNCTION      1.06   193.03     0  02:57      0.0299        2.01       0.106
  YS02001786           JUNCTION      0.06   193.07     0  02:58     0.00159        2.01       0.103
  YS02001788           JUNCTION      0.07   193.13     0  02:58       0.002        2.01       0.058
  YS02001790           JUNCTION      0.15   193.28     0  02:58     0.00437        2.02       0.075
  YS02001791           JUNCTION      0.00   193.28     0  02:59           0        2.01       0.036
  YS02001793           JUNCTION      0.00   193.28     0  02:59           0        2.01       0.017
  WS02004139           JUNCTION      0.32   191.11     0  00:00     0.00905        5.36       0.590
  WSC                  OUTFALL       0.00   486.94     0  02:49           0        8.63       0.000
  3                    OUTFALL       0.00   250.55     0  00:00           0       0.298       0.000
  4                    OUTFALL       0.00     0.00     0  00:00           0           0       0.000 ltr
  5                    OUTFALL       0.00     0.00     0  00:00           0           0       0.000 ltr
  JK-storage           STORAGE       0.00   193.28     0  02:59           0        2.16      -1.288
  CC-storage           STORAGE       0.00   291.84     0  02:59           0        2.85       1.980
  XR-storage           STORAGE     270.14   270.14     0  02:54        6.48        7.08      -0.000
  
  
  **********************
  Node Surcharge Summary
  **********************
  
  Surcharging occurs when water rises above the top of the highest conduit.
  ---------------------------------------------------------------------
                                               Max. Height   Min. Depth
                                   Hours       Above Crown    Below Rim
  Node                 Type      Surcharged         Meters       Meters
  ---------------------------------------------------------------------
  YS02001751           JUNCTION        1.25          0.123        1.077
  YS02001754           JUNCTION        2.83          0.345        0.805
  YS02001762           JUNCTION        4.10          0.603        0.547
  YS02001765           JUNCTION        3.87          0.553        0.547
  YS02001767           JUNCTION        3.73          0.514        0.516
  YS02001770           JUNCTION        3.54          0.478        0.442
  YS02001774           JUNCTION        4.01          0.581        0.469
  YS02001779           JUNCTION        2.61          0.317        0.363
  YS02001759           JUNCTION        4.25          0.639        0.571
  YS02001619           JUNCTION        0.79          0.074        0.536
  YS02001629           JUNCTION        0.80          0.074        0.396
  YS02001641           JUNCTION        3.93          0.566        0.534
  YS02001644           JUNCTION        3.94          0.571        0.349
  YS02001652           JUNCTION        3.02          0.377        0.753
  YS02001655           JUNCTION        1.50          0.153        1.047
  YS02001622           JUNCTION        1.04          0.099        0.521
  YS02001633           JUNCTION        3.78          0.529        0.531
  YS02001649           JUNCTION        4.15          0.613        0.437
  YS02001757           JUNCTION        4.72          0.742        0.468
  YS02001625           JUNCTION        3.15          0.399        0.381
  YS02163301           JUNCTION        3.58          0.486        0.544
  YS02163601           JUNCTION        4.12          0.605        0.475
  YS02164001           JUNCTION        3.85          0.545        0.555
  YS02001647           JUNCTION        3.10          0.393        0.507
  
  
  *********************
  Node Flooding Summary
  *********************
  
  Flooding refers to all water that overflows a node, whether it ponds or not.
  --------------------------------------------------------------------------
                                                             Total   Maximum
                                 Maximum   Time of Max       Flood    Ponded
                        Hours       Rate    Occurrence      Volume     Depth
  Node                 Flooded       LPS   days hr:min    10^6 ltr    Meters
  --------------------------------------------------------------------------
  XR-storage              4.80     79.44      0  03:01       0.797     0.000
  
  
  **********************
  Storage Volume Summary
  **********************
  
  --------------------------------------------------------------------------------------------------
                         Average     Avg  Evap Exfil       Maximum     Max    Time of Max    Maximum
                          Volume    Pcnt  Pcnt  Pcnt        Volume    Pcnt     Occurrence    Outflow
  Storage Unit           1000 m3    Full  Loss  Loss       1000 m3    Full    days hr:min        LPS
  --------------------------------------------------------------------------------------------------
  JK-storage               0.005       2     0     0         0.151      52       0  00:00     300.00
  CC-storage               1.030       7     0     0         2.792      18       0  07:50       0.00
  XR-storage               0.850      92     0     0         0.926     100       0  03:01     190.00
  
  
  ***********************
  Outfall Loading Summary
  ***********************
  
  -----------------------------------------------------------
                         Flow       Avg       Max       Total
                         Freq      Flow      Flow      Volume
  Outfall Node           Pcnt       LPS       LPS    10^6 ltr
  -----------------------------------------------------------
  WSC                   99.98    330.88    486.94       8.634
  3                     46.50     55.58    250.55       0.298
  4                      0.00      0.00      0.00       0.000
  5                      0.00      0.00      0.00       0.000
  -----------------------------------------------------------
  System                36.62    386.46    546.64       8.932
  
  
  ********************
  Link Flow Summary
  ********************
  
  -----------------------------------------------------------------------------
                                 Maximum  Time of Max   Maximum    Max/    Max/
                                  |Flow|   Occurrence   |Veloc|    Full    Full
  Link                 Type          LPS  days hr:min     m/sec    Flow   Depth
  -----------------------------------------------------------------------------
  WS02003066WSF200     CONDUIT    272.20     0  02:45      2.36    0.05    0.16
  WS02006287WS02006284 CONDUIT    135.10     0  02:22      1.40    0.06    0.18
  WS02006284WS02006280 CONDUIT    135.20     0  02:22      1.65    0.06    0.16
  WS02006280WS02006229 CONDUIT    135.20     0  02:22      2.64    0.03    0.12
  WS02006229WS02006228 CONDUIT    276.87     0  02:32      0.83    0.92    0.83
  WS02006256WS02006235 CONDUIT    166.25     0  00:01      2.58    1.76    1.00
  WS02006253WS02006251 CONDUIT     25.21     0  02:21      0.41    0.08    0.22
  WS02006252WS02006251 CONDUIT      0.00     0  00:00      0.00    0.00    0.00
  WS02006251WS02006249 CONDUIT     25.25     0  02:22      0.45    0.07    0.20
  WS02006249WS02006248 CONDUIT     25.18     0  02:23      0.54    0.14    0.18
  WS02006248WS02006247 CONDUIT     25.18     0  02:24      0.53    0.05    0.18
  WS02006247WS02006245 CONDUIT     25.15     0  02:24      0.48    0.20    0.19
  WS02006245WS02006243 CONDUIT     25.24     0  02:27      0.61    0.07    0.18
  WS02006243WS02006242 CONDUIT     25.08     0  02:25      0.48    0.05    0.29
  WS02006242WS02006240 CONDUIT     29.18     0  00:12      0.64    0.12    0.39
  WS02006240WS02006239 CONDUIT     42.40     0  00:11      0.58    0.13    0.41
  WS02006239WS02006238 CONDUIT     71.07     0  00:01      0.67    0.23    0.53
  WS02006238WS02006235 CONDUIT     95.49     0  00:11      1.25    0.21    0.58
  WS02006235WS02006234 CONDUIT    151.32     0  02:39      0.93    1.60    0.52
  WS02006234WS02006232 CONDUIT    151.38     0  02:39      1.13    0.31    0.60
  WS02006232WS02006231 CONDUIT    151.43     0  02:39      0.65    0.32    0.58
  WS02006231WS02006230 CONDUIT    151.49     0  02:38      0.99    2.30    0.42
  WS02006230WS02006229 CONDUIT    162.28     0  02:38      0.86    3.61    0.88
  WS02006228WS02006109 CONDUIT    276.63     0  02:32      0.75    1.21    0.87
  WS02006116WS02004401 CONDUIT    276.10     0  02:37      0.73    0.38    0.63
  WS02006115WS02006116 CONDUIT    277.27     0  02:36      0.79    0.36    0.54
  WS02006113WS02006111 CONDUIT    280.58     0  02:33      1.97    0.34    0.33
  WS02006112WS02006115 CONDUIT    279.27     0  02:35      0.52    0.16    0.66
  WS02006111WS02006112 CONDUIT    277.68     0  02:34      1.32    0.13    0.61
  WS02006110WS02006113 CONDUIT    277.69     0  02:33      0.81    0.25    0.64
  WS02006109WS02006110 CONDUIT    277.80     0  02:33      0.63    0.53    0.82
  WS02004411WS02004412 CONDUIT    272.63     0  02:43      0.67    0.39    0.51
  WS02004401WS02004402 CONDUIT    275.48     0  02:38      0.77    0.33    0.66
  WS02004413WS02003067 CONDUIT    272.20     0  02:44      0.77    0.12    0.46
  WS02004412WS02004413 CONDUIT    272.31     0  02:43      0.55    0.18    0.61
  WS02004410WS02004411 CONDUIT    273.13     0  02:42      0.71    0.37    0.49
  WS02004409WS02004410 CONDUIT    273.87     0  02:41      0.76    0.35    0.47
  WS02004407WS02004409 CONDUIT    274.79     0  02:40      1.21    0.10    0.34
  WS02004406WS02004407 CONDUIT    274.81     0  02:40      0.70    0.12    0.50
  WS02004405WS02004406 CONDUIT    274.86     0  02:40      0.66    0.54    0.78
  WS02004404WS02004405 CONDUIT    274.92     0  02:39      0.84    2.69    0.78
  WS02004403WS02004404 CONDUIT    274.87     0  02:39      0.74    0.20    0.74
  WS02004402WS02004403 CONDUIT    275.11     0  02:39      0.75    0.40    0.69
  WS02004139WS02001211 CONDUIT    190.48     0  03:05      0.69    0.24    0.44
  WS02004138WS02004139 CONDUIT    190.79     0  00:00      2.94    0.04    0.32
  WS02003067WS02003066 CONDUIT    272.20     0  02:45      0.82    0.09    0.33
  WS02001213WS02003059 CONDUIT    198.66     0  03:03      0.65    0.33    0.60
  WS02001212WS02001213 CONDUIT    198.21     0  03:03      1.03    0.31    0.30
  WS02001211WS02001212 CONDUIT    198.03     0  03:04      0.54    0.15    0.48
  WS02003072WS02003073 CONDUIT    485.16     0  02:48      1.37    1.05    0.35
  WS02003069WS02003072 CONDUIT    485.18     0  02:47      1.31    0.23    0.36
  WS02003060WS02003069 CONDUIT    484.88     0  02:47      1.59    0.19    0.31
  WS02003059WS02003060 CONDUIT    199.30     0  03:02      0.67    0.13    0.50
  HS02004901HS02004770 CONDUIT      6.58     0  02:17      0.03    0.02    0.27
  HS02004876HS02004881 CONDUIT     21.85     0  02:21      0.41    0.23    0.08
  HS02004870HS02004876 CONDUIT     17.28     0  02:21      0.29    0.01    0.08
  HS02004842HS02004848 CONDUIT      3.82     0  02:32      0.02    0.00    0.26
  HS02004837HS02004842 CONDUIT      4.47     0  00:03      0.41    0.00    0.28
  HS02004830HS02004837 CONDUIT     18.04     0  02:19      0.39    0.02    0.07
  HS02004824HS02004830 CONDUIT     18.18     0  02:20      0.44    0.02    0.06
  HS02004817HS02004824 CONDUIT     27.24     0  02:23      0.17    0.01    0.37
  HS02004770HS02004777 CONDUIT     33.68     0  02:18      0.17    0.06    0.29
  HS02004799HS02004480 CONDUIT     83.63     0  02:20      0.47    0.11    0.25
  HS02004792HS02004799 CONDUIT     76.48     0  02:19      0.55    0.05    0.20
  HS02004788HS02004792 CONDUIT     44.56     0  02:21      0.71    0.03    0.09
  HS02004785HS02004788 CONDUIT     33.13     0  02:21      0.42    0.25    0.11
  HS02004777HS02004785 CONDUIT     33.12     0  02:19      0.21    0.04    0.23
  HS02004480HS02004478 CONDUIT     98.64     0  02:21      0.80    0.42    0.18
  HS02004479HS02004480 CONDUIT     15.34     0  02:23      0.16    0.01    0.25
  HS02004862HS02004870 CONDUIT     12.44     0  02:22      0.39    0.01    0.05
  HS02004848HS02004852 CONDUIT      4.68     0  02:21      0.25    0.01    0.03
  HS02004856HS02004862 CONDUIT      8.24     0  02:21      0.28    0.01    0.04
  HS02004852HS02004856 CONDUIT      4.64     0  02:23      0.08    0.01    0.08
  HS02004802HS02004478 CONDUIT     36.97     0  02:25      0.24    0.03    0.22
  HS02004478WS02006287 CONDUIT    135.11     0  02:22      1.09    0.04    0.14
  HS02004817HS02004807 CONDUIT     28.09     0  02:26      0.09    0.02    0.47
  HS02004807HS02004802 CONDUIT     36.80     0  02:23      0.20    0.07    0.26
  YS02001759YS02001757 CONDUIT    120.84     0  02:57      0.16    0.09    1.00
  YS02001762YS02001759 CONDUIT    100.19     0  03:23      0.17    0.12    1.00
  YS02001765YS02001762 CONDUIT     96.16     0  03:12      0.22    0.09    1.00
  YS02001770YS02001767 CONDUIT     89.55     0  03:58      0.32    0.35    1.00
  YS02001774YS02001770 CONDUIT     60.48     0  03:57      0.14    0.04    1.00
  YS02001779YS02001774 CONDUIT     57.84     0  03:58      0.08    0.03    1.00
  YS02001649YS02001757 CONDUIT    188.84     0  03:37      0.24    0.11    1.00
  YS02001767YS02001765 CONDUIT     88.92     0  03:11      0.26    0.11    1.00
  YS02006561YS02001783 CONDUIT    191.97     0  02:57      1.57    0.10    0.29
  YS02001783YS02001784 CONDUIT    191.97     0  02:57      1.05    0.26    0.39
  YS02001784YS02001785 CONDUIT    193.01     0  02:58      1.10    0.45    0.38
  YS02001788YS02001790 CONDUIT    193.13     0  02:58      1.65    0.14    0.28
  YS02001790YS02001791 CONDUIT    193.28     0  02:59      1.89    0.21    0.26
  YS02001791YS02001793 CONDUIT    193.28     0  02:59      3.40    0.08    0.17
  YS02001910YS02001907 CONDUIT     59.26     0  03:01      0.49    0.03    0.64
  YS02001786YS02001788 CONDUIT    193.06     0  02:58      1.50    0.37    0.30
  YS02001915YS02001910 CONDUIT     59.25     0  03:01      0.44    0.03    0.43
  YS02001918YS02001915 CONDUIT     20.44     0  03:04      0.44    0.01    0.20
  YS02001923YS02001920 CONDUIT     17.59     0  03:02      0.34    0.01    0.12
  YS02001926YS02001923 CONDUIT     17.55     0  03:02      0.40    0.03    0.11
  YS02001929YS02001926 CONDUIT     17.55     0  03:01      0.41    0.01    0.10
  YS02001920YS02001918 CONDUIT     20.45     0  03:03      0.37    0.02    0.12
  YS02001629YS02163301 CONDUIT     66.52     0  03:36      0.09    0.08    1.00
  YS02001619YS02001622 CONDUIT     59.46     0  04:15      0.58    0.09    1.00
  YS02001622YS02001625 CONDUIT     53.07     0  03:46      0.19    0.03    1.00
  YS02001625YS02001629 CONDUIT     74.02     0  03:57      0.19    0.04    1.00
  YS02163301YS02001633 CONDUIT     61.69     0  03:39      0.10    0.06    1.00
  YS02163601YS02164001 CONDUIT     89.85     0  03:59      0.12    0.08    1.00
  YS02164001YS02001641 CONDUIT     86.03     0  03:56      0.11    0.12    1.00
  YS02001641YS02001644 CONDUIT     81.73     0  03:31      0.13    0.26    1.00
  YS02001647YS02001649 CONDUIT    155.26     0  03:59      0.20    0.08    1.00
  YS02006553YS02006556 CONDUIT    131.13     0  03:03      0.22    0.11    0.72
  YS02006556YS02006558 CONDUIT    131.25     0  03:03      0.21    0.10    0.75
  YSB6556YSB1171       CONDUIT      8.24     0  02:23      0.04    0.01    0.52
  YS02001907YS02006553 CONDUIT    130.95     0  03:02      0.18    0.15    0.82
  YS02006558YS02006561 CONDUIT    191.97     0  02:57      2.02    0.42    0.37
  YS02001633YS02163601 CONDUIT     90.18     0  03:59      0.13    0.09    1.00
  YS02001644YS02001647 CONDUIT    116.73     0  03:04      0.19    0.07    1.00
  YS02001745YS02001748 CONDUIT     79.99     0  05:19      1.24    0.03    0.67
  YS02001748YS02001751 CONDUIT    142.11     0  03:42      0.97    0.07    0.96
  YS02001751YS02001754 CONDUIT     82.87     0  03:01      0.90    0.04    1.00
  YS02001754YS02001757 CONDUIT    124.85     0  03:45      0.33    0.05    1.00
  YS02001882YS02001884 CONDUIT      2.68     0  02:12      0.06    0.00    0.36
  YS02001884YS02001887 CONDUIT      8.12     0  02:08      0.06    0.01    0.46
  YS02001890YS02001895 CONDUIT     72.62     0  02:48      0.23    0.03    0.43
  YS02001895YS02001898 CONDUIT     72.53     0  02:51      0.45    0.13    0.29
  YS02001898YS02001901 CONDUIT     72.53     0  02:51      0.27    0.05    0.37
  YS02001901YS02001904 CONDUIT     72.26     0  02:53      0.23    0.11    0.42
  YS02001904YS02001907 CONDUIT     72.36     0  02:53      0.15    0.03    0.58
  YS02001887YS02001890 CONDUIT     72.85     0  02:49      0.18    0.12    0.51
  YS02001652YS02001649 CONDUIT    119.75     0  03:50      0.30    0.06    1.00
  YS02001655YS02001652 CONDUIT     70.85     0  03:34      0.96    0.03    1.00
  YS02001658YS02001655 CONDUIT    132.65     0  03:49      1.12    0.06    0.93
  YS02001661YS02001658 CONDUIT     51.54     0  02:47      1.25    0.02    0.69
  YS02001664YS02001661 CONDUIT     51.54     0  02:47      0.87    0.02    0.34
  YSB1154YSB6556       CONDUIT      8.14     0  02:20      0.19    0.01    0.41
  YSB1174YSB1171       CONDUIT      7.69     0  02:13      0.04    0.01    0.53
  YSB1171HS02004479    CONDUIT     15.21     0  02:22      0.54    0.01    0.40
  HS02004881HS02006253 CONDUIT     24.53     0  02:21      1.39    0.00    0.03
  YS02001793JiankangQianchi CONDUIT    193.28     0  02:59     11.40    0.02    0.50
  YS02001757CaochengTiaoxuchi CONDUIT    291.84     0  02:59      0.67    0.13    1.00
  WSF200WS02003060     CONDUIT    272.25     0  02:45      1.35    0.06    0.23
  1                    CONDUIT    486.94     0  02:49      2.72    0.17    0.28
  2                    CONDUIT      0.00     0  00:00      0.00    0.00    0.00
  3                    CONDUIT    250.55     0  00:00      8.26    0.40    0.46
  4                    CONDUIT      0.00     0  00:00      0.00    0.00    0.00
  CC-Pump-1            PUMP         0.00     0  00:00              0.00
  CC-Pump-2            PUMP         0.00     0  00:00              0.00
  JK-Pump-1            PUMP       300.00     0  00:00              1.00
  JK-Pump-2            PUMP       193.28     0  02:59              0.64
  XR-Pump-1            PUMP        95.00     0  00:00              1.00
  XR-Pump-2            PUMP        95.00     0  00:00              1.00
  XR-Pump-3            PUMP         0.00     0  00:00              0.00
  XR-Pump-4            PUMP        95.00     0  00:30              1.00
  
  
  ***************************
  Flow Classification Summary
  ***************************
  
  -------------------------------------------------------------------------------------
                      Adjusted    ---------- Fraction of Time in Flow Class ---------- 
                       /Actual         Up    Down  Sub   Sup   Up    Down  Norm  Inlet 
  Conduit               Length    Dry  Dry   Dry   Crit  Crit  Crit  Crit  Ltd   Ctrl  
  -------------------------------------------------------------------------------------
  WS02003066WSF200        1.00   0.16  0.00  0.00  0.00  0.84  0.00  0.00  0.76  0.00
  WS02006287WS02006284    1.00   0.10  0.04  0.00  0.51  0.34  0.00  0.00  0.79  0.00
  WS02006284WS02006280    1.00   0.12  0.00  0.00  0.00  0.00  0.00  0.88  0.00  0.00
  WS02006280WS02006229    1.00   0.12  0.00  0.00  0.00  0.00  0.00  0.88  0.00  0.00
  WS02006229WS02006228    1.00   0.00  0.00  0.00  0.96  0.00  0.00  0.04  0.00  0.00
  WS02006256WS02006235    1.00   0.00  0.00  0.00  0.99  0.01  0.00  0.00  0.00  0.00
  WS02006253WS02006251    1.00   0.08  0.03  0.00  0.88  0.00  0.01  0.00  0.00  0.00
  WS02006252WS02006251    1.00   1.00  0.00  0.00  0.00  0.00  0.00  0.00  0.00  0.00
  WS02006251WS02006249    1.00   0.00  0.00  0.00  1.00  0.00  0.00  0.00  0.98  0.00
  WS02006249WS02006248    1.00   0.00  0.06  0.00  0.00  0.00  0.94  0.00  0.00  0.00
  WS02006248WS02006247    1.00   0.06  0.00  0.00  0.93  0.00  0.00  0.00  0.87  0.00
  WS02006247WS02006245    1.00   0.05  0.00  0.00  0.94  0.00  0.00  0.00  0.00  0.00
  WS02006245WS02006243    1.00   0.03  0.01  0.00  0.85  0.00  0.00  0.11  0.21  0.00
  WS02006243WS02006242    1.00   0.02  0.01  0.00  0.97  0.00  0.00  0.00  0.56  0.00
  WS02006242WS02006240    1.00   0.01  0.00  0.00  0.99  0.00  0.00  0.00  0.00  0.00
  WS02006240WS02006239    1.00   0.01  0.00  0.00  0.88  0.00  0.00  0.12  0.01  0.00
  WS02006239WS02006238    1.00   0.00  0.00  0.00  1.00  0.00  0.00  0.00  0.01  0.00
  WS02006238WS02006235    1.00   0.00  0.00  0.00  1.00  0.00  0.00  0.00  0.00  0.00
  WS02006235WS02006234    1.00   0.00  0.00  0.00  0.87  0.00  0.13  0.00  0.00  0.00
  WS02006234WS02006232    1.00   0.00  0.00  0.00  0.99  0.01  0.00  0.00  0.17  0.00
  WS02006232WS02006231    1.00   0.00  0.01  0.00  0.98  0.00  0.01  0.00  0.00  0.00
  WS02006231WS02006230    1.00   0.01  0.00  0.00  0.05  0.00  0.94  0.00  0.00  0.00
  WS02006230WS02006229    1.00   0.00  0.00  0.00  0.96  0.00  0.00  0.04  0.01  0.00
  WS02006228WS02006109    1.00   0.00  0.00  0.00  0.99  0.00  0.00  0.01  0.00  0.00
  WS02006116WS02004401    1.00   0.07  0.00  0.00  0.93  0.00  0.00  0.00  0.00  0.00
  WS02006115WS02006116    1.00   0.07  0.00  0.00  0.92  0.00  0.00  0.02  0.00  0.00
  WS02006113WS02006111    1.00   0.05  0.00  0.00  0.00  0.94  0.00  0.00  0.14  0.00
  WS02006112WS02006115    1.00   0.06  0.01  0.00  0.93  0.00  0.00  0.00  0.00  0.00
  WS02006111WS02006112    1.00   0.06  0.00  0.00  0.93  0.00  0.00  0.01  0.98  0.00
  WS02006110WS02006113    1.00   0.03  0.02  0.00  0.95  0.00  0.00  0.00  0.00  0.00
  WS02006109WS02006110    1.00   0.00  0.03  0.00  0.95  0.00  0.02  0.00  0.00  0.00
  WS02004411WS02004412    1.00   0.10  0.00  0.00  0.90  0.00  0.00  0.00  0.00  0.00
  WS02004401WS02004402    1.00   0.07  0.00  0.00  0.93  0.00  0.00  0.00  0.00  0.00
  WS02004413WS02003067    1.00   0.11  0.04  0.00  0.00  0.00  0.85  0.00  0.00  0.00
  WS02004412WS02004413    1.00   0.11  0.00  0.00  0.89  0.00  0.00  0.00  0.03  0.00
  WS02004410WS02004411    1.00   0.10  0.00  0.00  0.90  0.00  0.00  0.00  0.04  0.00
  WS02004409WS02004410    1.00   0.10  0.00  0.00  0.90  0.00  0.00  0.00  0.04  0.00
  WS02004407WS02004409    1.00   0.10  0.00  0.00  0.89  0.01  0.00  0.00  0.89  0.00
  WS02004406WS02004407    1.00   0.00  0.10  0.00  0.90  0.00  0.00  0.00  0.00  0.00
  WS02004405WS02004406    1.00   0.00  0.00  0.00  1.00  0.00  0.00  0.00  0.00  0.00
  WS02004404WS02004405    1.00   0.00  0.00  0.00  1.00  0.00  0.00  0.00  0.00  0.00
  WS02004403WS02004404    1.00   0.00  0.07  0.00  0.93  0.00  0.00  0.00  0.01  0.00
  WS02004402WS02004403    1.00   0.07  0.00  0.00  0.93  0.00  0.00  0.00  0.00  0.00
  WS02004139WS02001211    1.00   0.00  0.00  0.00  0.99  0.00  0.01  0.00  0.00  0.00
  WS02004138WS02004139    1.00   0.00  0.00  0.00  0.97  0.02  0.00  0.01  1.00  0.00
  WS02003067WS02003066    1.00   0.15  0.01  0.00  0.84  0.00  0.00  0.00  0.00  0.00
  WS02001213WS02003059    1.00   0.01  0.01  0.00  0.98  0.00  0.00  0.00  0.00  0.00
  WS02001212WS02001213    1.00   0.01  0.00  0.00  0.13  0.00  0.85  0.00  0.00  0.00
  WS02001211WS02001212    1.00   0.00  0.01  0.00  0.99  0.00  0.00  0.00  0.00  0.00
  WS02003072WS02003073    1.00   0.00  0.00  0.00  0.00  0.00  0.00  1.00  0.00  0.00
  WS02003069WS02003072    1.00   0.00  0.00  0.00  0.98  0.02  0.00  0.00  0.78  0.00
  WS02003060WS02003069    1.00   0.00  0.00  0.00  0.96  0.04  0.00  0.00  0.25  0.00
  WS02003059WS02003060    1.00   0.00  0.00  0.00  0.99  0.01  0.00  0.00  0.01  0.00
  HS02004901HS02004770    1.00   0.12  0.00  0.00  0.88  0.00  0.00  0.00  0.03  0.00
  HS02004876HS02004881    1.00   0.06  0.00  0.00  0.94  0.00  0.00  0.00  0.00  0.00
  HS02004870HS02004876    1.00   0.02  0.00  0.00  0.98  0.01  0.00  0.00  0.95  0.00
  HS02004842HS02004848    1.00   0.00  0.12  0.00  0.88  0.00  0.00  0.00  0.70  0.00
  HS02004837HS02004842    1.00   0.00  0.00  0.00  0.98  0.02  0.00  0.00  0.11  0.00
  HS02004830HS02004837    1.00   0.00  0.00  0.00  0.99  0.01  0.00  0.00  0.99  0.00
  HS02004824HS02004830    1.00   0.00  0.00  0.00  1.00  0.00  0.00  0.00  0.00  0.00
  HS02004817HS02004824    1.00   0.00  0.00  0.00  1.00  0.00  0.00  0.00  1.00  0.00
  HS02004770HS02004777    1.00   0.00  0.12  0.00  0.88  0.00  0.00  0.00  0.08  0.00
  HS02004799HS02004480    1.00   0.01  0.07  0.00  0.85  0.00  0.08  0.00  0.00  0.00
  HS02004792HS02004799    1.00   0.00  0.00  0.00  0.96  0.04  0.00  0.00  0.98  0.00
  HS02004788HS02004792    1.00   0.00  0.00  0.00  0.97  0.03  0.00  0.00  0.98  0.00
  HS02004785HS02004788    1.00   0.00  0.00  0.00  1.00  0.00  0.00  0.00  0.00  0.00
  HS02004777HS02004785    1.00   0.00  0.00  0.00  1.00  0.00  0.00  0.00  0.22  0.00
  HS02004480HS02004478    1.00   0.13  0.00  0.00  0.55  0.00  0.00  0.32  0.00  0.00
  HS02004479HS02004480    1.00   0.07  0.00  0.00  0.93  0.00  0.00  0.00  0.16  0.00
  HS02004862HS02004870    1.00   0.00  0.00  0.00  1.00  0.00  0.00  0.00  0.05  0.00
  HS02004848HS02004852    1.00   0.12  0.00  0.00  0.88  0.00  0.00  0.00  0.70  0.00
  HS02004856HS02004862    1.00   0.00  0.18  0.00  0.82  0.00  0.00  0.00  0.73  0.00
  HS02004852HS02004856    1.00   0.12  0.02  0.00  0.86  0.00  0.00  0.00  0.82  0.00
  HS02004802HS02004478    1.00   0.12  0.02  0.00  0.86  0.00  0.00  0.00  0.00  0.00
  HS02004478WS02006287    1.00   0.14  0.00  0.00  0.85  0.00  0.00  0.00  0.81  0.00
  HS02004817HS02004807    1.00   0.00  0.12  0.00  0.88  0.00  0.00  0.00  0.00  0.00
  HS02004807HS02004802    1.00   0.12  0.00  0.00  0.87  0.00  0.00  0.01  0.01  0.00
  YS02001759YS02001757    1.00   0.00  0.00  0.00  1.00  0.00  0.00  0.00  0.17  0.00
  YS02001762YS02001759    1.00   0.00  0.00  0.00  1.00  0.00  0.00  0.00  0.05  0.00
  YS02001765YS02001762    1.00   0.00  0.00  0.00  1.00  0.00  0.00  0.00  0.23  0.00
  YS02001770YS02001767    1.00   0.00  0.00  0.00  1.00  0.00  0.00  0.00  0.00  0.00
  YS02001774YS02001770    1.00   0.01  0.14  0.00  0.86  0.00  0.00  0.00  0.07  0.00
  YS02001779YS02001774    1.00   0.00  0.00  0.00  1.00  0.00  0.00  0.00  0.27  0.00
  YS02001649YS02001757    1.00   0.00  0.00  0.00  1.00  0.00  0.00  0.00  0.19  0.00
  YS02001767YS02001765    1.00   0.00  0.00  0.00  1.00  0.00  0.00  0.00  0.01  0.00
  YS02006561YS02001783    1.00   0.18  0.00  0.00  0.00  0.81  0.00  0.00  0.72  0.00
  YS02001783YS02001784    1.00   0.00  0.19  0.00  0.81  0.00  0.00  0.00  0.06  0.00
  YS02001784YS02001785    1.00   0.00  0.00  0.00  1.00  0.00  0.00  0.00  0.26  0.00
  YS02001788YS02001790    1.00   0.00  0.00  0.00  0.19  0.81  0.00  0.00  0.99  0.00
  YS02001790YS02001791    1.00   0.00  0.00  0.00  0.04  0.96  0.00  0.00  0.39  0.00
  YS02001791YS02001793    1.00   0.00  0.00  0.00  0.00  1.00  0.00  0.00  0.00  0.00
  YS02001910YS02001907    1.00   0.00  0.00  0.00  0.93  0.00  0.00  0.07  0.13  0.00
  YS02001786YS02001788    1.00   0.00  0.00  0.00  0.20  0.80  0.00  0.00  0.00  0.00
  YS02001915YS02001910    1.00   0.00  0.00  0.00  0.97  0.03  0.00  0.00  0.25  0.00
  YS02001918YS02001915    1.00   0.00  0.02  0.00  0.94  0.04  0.00  0.00  0.80  0.00
  YS02001923YS02001920    1.00   0.00  0.00  0.00  1.00  0.00  0.00  0.00  1.00  0.00
  YS02001926YS02001923    1.00   0.00  0.09  0.00  0.00  0.00  0.91  0.00  0.00  0.00
  YS02001929YS02001926    1.00   0.00  0.12  0.00  0.88  0.00  0.00  0.00  0.86  0.00
  YS02001920YS02001918    1.00   0.00  0.02  0.00  0.98  0.00  0.00  0.00  0.00  0.00
  YS02001629YS02163301    1.00   0.16  0.01  0.00  0.83  0.00  0.00  0.00  0.00  0.00
  YS02001619YS02001622    1.00   0.12  0.00  0.00  0.88  0.00  0.00  0.00  0.00  0.00
  YS02001622YS02001625    1.00   0.12  0.00  0.00  0.88  0.00  0.00  0.00  0.14  0.00
  YS02001625YS02001629    1.00   0.12  0.07  0.00  0.78  0.00  0.03  0.00  0.00  0.00
  YS02163301YS02001633    1.00   0.00  0.16  0.00  0.84  0.00  0.00  0.00  0.00  0.00
  YS02163601YS02164001    1.00   0.00  0.09  0.00  0.91  0.00  0.00  0.00  0.00  0.00
  YS02164001YS02001641    1.00   0.02  0.07  0.00  0.91  0.00  0.00  0.00  0.07  0.00
  YS02001641YS02001644    1.00   0.00  0.02  0.00  0.98  0.00  0.00  0.00  0.00  0.00
  YS02001647YS02001649    1.00   0.00  0.18  0.00  0.82  0.00  0.00  0.00  0.01  0.00
  YS02006553YS02006556    1.00   0.04  0.00  0.00  0.96  0.00  0.00  0.00  0.03  0.00
  YS02006556YS02006558    1.00   0.00  0.01  0.00  0.99  0.00  0.00  0.00  0.00  0.00
  YSB6556YSB1171          1.00   0.08  0.04  0.00  0.89  0.00  0.00  0.00  0.00  0.00
  YS02001907YS02006553    1.00   0.01  0.06  0.00  0.93  0.00  0.00  0.00  0.00  0.00
  YS02006558YS02006561    1.00   0.18  0.00  0.00  0.00  0.81  0.00  0.00  0.71  0.00
  YS02001633YS02163601    1.00   0.00  0.02  0.00  0.98  0.00  0.00  0.00  0.20  0.00
  YS02001644YS02001647    1.00   0.00  0.18  0.00  0.82  0.00  0.00  0.00  0.00  0.00
  YS02001745YS02001748    1.00   0.00  0.00  0.00  0.54  0.07  0.00  0.39  0.20  0.00
  YS02001748YS02001751    1.00   0.00  0.00  0.00  0.94  0.06  0.00  0.00  0.27  0.00
  YS02001751YS02001754    1.00   0.00  0.00  0.00  0.80  0.00  0.00  0.20  0.02  0.00
  YS02001754YS02001757    1.00   0.00  0.00  0.00  0.98  0.02  0.00  0.00  0.27  0.00
  YS02001882YS02001884    1.00   0.16  0.01  0.00  0.83  0.00  0.00  0.00  0.00  0.00
  YS02001884YS02001887    1.00   0.08  0.02  0.00  0.89  0.00  0.00  0.00  0.00  0.00
  YS02001890YS02001895    1.00   0.01  0.16  0.00  0.83  0.00  0.00  0.00  0.00  0.00
  YS02001895YS02001898    1.00   0.17  0.00  0.00  0.81  0.00  0.02  0.00  0.00  0.00
  YS02001898YS02001901    1.00   0.16  0.01  0.00  0.82  0.00  0.00  0.00  0.02  0.00
  YS02001901YS02001904    1.00   0.16  0.00  0.00  0.84  0.00  0.00  0.00  0.00  0.00
  YS02001904YS02001907    1.00   0.01  0.15  0.00  0.84  0.00  0.00  0.00  0.00  0.00
  YS02001887YS02001890    1.00   0.00  0.01  0.00  0.93  0.00  0.06  0.00  0.00  0.00
  YS02001652YS02001649    1.00   0.00  0.00  0.00  1.00  0.00  0.00  0.00  0.27  0.00
  YS02001655YS02001652    1.00   0.00  0.00  0.00  0.80  0.00  0.00  0.20  0.02  0.00
  YS02001658YS02001655    1.00   0.00  0.15  0.00  0.79  0.06  0.00  0.00  0.17  0.00
  YS02001661YS02001658    1.00   0.15  0.00  0.00  0.55  0.30  0.00  0.00  0.28  0.00
  YS02001664YS02001661    1.00   0.12  0.00  0.00  0.88  0.00  0.00  0.00  0.80  0.00
  YSB1154YSB6556          1.00   0.11  0.00  0.00  0.89  0.00  0.00  0.00  0.02  0.00
  YSB1174YSB1171          1.00   0.08  0.02  0.00  0.90  0.00  0.00  0.00  0.00  0.00
  YSB1171HS02004479       1.00   0.07  0.00  0.00  0.92  0.00  0.00  0.01  0.13  0.00
  HS02004881HS02006253    1.00   0.08  0.00  0.00  0.00  0.00  0.00  0.92  0.00  0.00
  YS02001793JiankangQianchi    1.00   0.00  0.01  0.00  0.06  0.94  0.00  0.00  0.02  0.00
  YS02001757CaochengTiaoxuchi    1.00   0.00  0.23  0.00  0.77  0.00  0.00  0.00  0.00  0.00
  WSF200WS02003060        1.00   0.00  0.16  0.00  0.84  0.00  0.00  0.00  0.72  0.00
  1                       1.00   0.00  0.00  0.00  0.00  1.00  0.00  0.00  0.17  0.00
  2                       1.00   1.00  0.00  0.00  0.00  0.00  0.00  0.00  0.00  0.00
  3                       1.00   0.53  0.00  0.00  0.00  0.47  0.00  0.00  0.29  0.00
  4                       1.00   1.00  0.00  0.00  0.00  0.00  0.00  0.00  0.00  0.00
  
  
  *************************
  Conduit Surcharge Summary
  *************************
  
  ----------------------------------------------------------------------------
                                                           Hours        Hours 
                         --------- Hours Full --------   Above Full   Capacity
  Conduit                Both Ends  Upstream  Dnstream   Normal Flow   Limited
  ----------------------------------------------------------------------------
  WS02006256WS02006235        2.92      2.92      6.26      2.62         0.01
  WS02006235WS02006234        0.01      0.01      0.01      2.66         0.01
  WS02006231WS02006230        0.01      0.01      0.01      3.86         0.01
  WS02006230WS02006229        0.01      0.01      0.01      5.71         0.01
  WS02006228WS02006109        0.01      0.01      0.01      0.60         0.01
  WS02004404WS02004405        0.01      0.01      0.01      3.33         0.01
  WS02003072WS02003073        0.01      0.01      0.01      0.38         0.01
  YS02001759YS02001757        4.25      4.25      4.72      0.01         0.01
  YS02001762YS02001759        4.10      4.10      4.25      0.01         0.01
  YS02001765YS02001762        3.87      3.87      4.10      0.01         0.01
  YS02001770YS02001767        3.69      3.69      3.72      0.01         0.13
  YS02001774YS02001770        3.54      3.54      4.01      0.01         0.01
  YS02001779YS02001774        2.61      2.61      4.01      0.01         0.01
  YS02001649YS02001757        4.15      4.15      4.72      0.01         0.01
  YS02001767YS02001765        3.72      3.72      3.87      0.01         0.01
  YS02001629YS02163301        3.43      3.43      3.58      0.01         0.01
  YS02001619YS02001622        0.79      0.79      1.04      0.01         0.01
  YS02001622YS02001625        1.04      1.04      3.15      0.01         0.01
  YS02001625YS02001629        0.80      0.80      3.15      0.01         0.01
  YS02163301YS02001633        3.58      3.58      3.88      0.01         0.01
  YS02163601YS02164001        3.85      3.85      4.12      0.01         0.01
  YS02164001YS02001641        3.85      3.85      3.93      0.01         0.01
  YS02001641YS02001644        3.92      3.93      3.94      0.01         0.13
  YS02001647YS02001649        3.10      3.10      4.15      0.01         0.01
  YS02001633YS02163601        3.78      3.78      4.12      0.01         0.01
  YS02001644YS02001647        3.10      3.10      3.94      0.01         0.01
  YS02001748YS02001751        0.01      0.01      1.25      0.01         0.01
  YS02001751YS02001754        1.25      1.25      2.83      0.01         0.01
  YS02001754YS02001757        3.12      3.12      4.72      0.01         0.01
  YS02001652YS02001649        3.19      3.19      4.15      0.01         0.01
  YS02001655YS02001652        1.50      1.50      3.02      0.01         0.01
  YS02001658YS02001655        0.01      0.01      1.50      0.01         0.01
  YS02001793JiankangQianchi        0.01      0.01      0.09      0.01         0.01
  YS02001757CaochengTiaoxuchi        0.02      0.02      4.72      0.01         0.01
  
  
  ***************
  Pumping Summary
  ***************
  
  ---------------------------------------------------------------------------------------------------------
                                                  Min       Avg       Max     Total     Power    % Time Off
                        Percent   Number of      Flow      Flow      Flow    Volume     Usage    Pump Curve
  Pump                 Utilized   Start-Ups       LPS       LPS       LPS  10^6 ltr     Kw-hr    Low   High
  ---------------------------------------------------------------------------------------------------------
  CC-Pump-1                0.00           0      0.00      0.00      0.00     0.000      0.00    0.0    0.0
  CC-Pump-2                0.00           0      0.00      0.00      0.00     0.000      0.00    0.0    0.0
  JK-Pump-1                6.40           1      0.00    223.80    300.00     0.180      2.81    0.0    0.0
  JK-Pump-2               95.73           1      0.00    106.72    193.28     2.012     38.35    0.0    0.0
  XR-Pump-1                6.40           1      0.00     89.60     95.00     0.143      1.68    0.0    0.0
  XR-Pump-2              100.00           1      0.00     95.00     95.00     2.679     17.77    0.0    0.0
  XR-Pump-3                0.00           0      0.00      0.00      0.00     0.000      0.00    0.0    0.0
  XR-Pump-4               95.73           1      0.00     94.50     95.00     2.536     16.09    0.0    0.0
  

  Analysis begun on:  Thu Jan  6 00:42:43 2022
  Analysis ended on:  Thu Jan  6 00:42:44 2022
  Total elapsed time: 00:00:01