
  EPA STORM WATER MANAGEMENT MODEL - VERSION 5.1 (Build 5.3.0.dev0)
  --------------------------------------------------------------

  WARNING 04: minimum elevation drop used for Conduit WS02004404WS02004405
  WARNING 03: negative offset ignored for Link YS02001904YS02001907
  
  *********************************************************
  NOTE: The summary statistics displayed in this report are
  based on results found at every computational time step,  
  not just on results from each reporting time step.
  *********************************************************
  
  ****************
  Analysis Options
  ****************
  Flow Units ............... LPS
  Process Models:
    Rainfall/Runoff ........ YES
    RDII ................... NO
    Snowmelt ............... NO
    Groundwater ............ NO
    Flow Routing ........... YES
    Ponding Allowed ........ NO
    Water Quality .......... NO
  Infiltration Method ...... HORTON
  Flow Routing Method ...... DYNWAVE
  Surcharge Method ......... EXTRAN
  Starting Date ............ 08/28/2015 08:00:00
  Ending Date .............. 08/28/2015 15:50:00
  Antecedent Dry Days ...... 8.0
  Report Time Step ......... 00:01:00
  Wet Time Step ............ 00:01:00
  Dry Time Step ............ 00:01:00
  Routing Time Step ........ 5.00 sec
  Variable Time Step ....... YES
  Maximum Trials ........... 8
  Number of Threads ........ 4
  Head Tolerance ........... 0.001500 m
  
  
  **************************        Volume         Depth
  Runoff Quantity Continuity     hectare-m            mm
  **************************     ---------       -------
  Total Precipitation ......         1.257         2.751
  Evaporation Loss .........         0.000         0.000
  Infiltration Loss ........         0.302         0.661
  Surface Runoff ...........         0.267         0.585
  Final Storage ............         0.688         1.506
  Continuity Error (%) .....        -0.013
  
  
  **************************        Volume        Volume
  Flow Routing Continuity        hectare-m      10^6 ltr
  **************************     ---------     ---------
  Dry Weather Inflow .......         0.616         6.165
  Wet Weather Inflow .......         0.267         2.668
  Groundwater Inflow .......         0.000         0.000
  RDII Inflow ..............         0.000         0.000
  External Inflow ..........         0.102         1.024
  External Outflow .........         0.745         7.449
  Flooding Loss ............         0.026         0.257
  Evaporation Loss .........         0.000         0.000
  Exfiltration Loss ........         0.000         0.000
  Initial Stored Volume ....         0.076         0.761
  Final Stored Volume ......         0.294         2.943
  Continuity Error (%) .....        -0.300
  
  
  *************************
  Highest Continuity Errors
  *************************
  Node YS02001774 (52.60%)
  Node HS02004842 (51.91%)
  Node YS02001884 (43.56%)
  Node YSB1171 (18.57%)
  Node YS02001625 (18.08%)
  
  
  ***************************
  Time-Step Critical Elements
  ***************************
  Link YS02001793JiankangQianchi (61.62%)
  Link WS02006280WS02006229 (14.35%)
  Link 3 (9.63%)
  Link WS02006238WS02006235 (1.49%)
  
  
  ********************************
  Highest Flow Instability Indexes
  ********************************
  Link YS02001754YS02001757 (11)
  Link YS02001751YS02001754 (11)
  Link YS02001649YS02001757 (10)
  Link YS02001652YS02001649 (10)
  Link YS02001762YS02001759 (10)
  
  
  *************************
  Routing Time Step Summary
  *************************
  Minimum Time Step           :     0.65 sec
  Average Time Step           :     3.44 sec
  Maximum Time Step           :     5.00 sec
  Percent in Steady State     :     0.00
  Average Iterations per Step :     2.01
  Percent Not Converging      :     0.00
  
  
  ***************************
  Subcatchment Runoff Summary
  ***************************
  
  ------------------------------------------------------------------------------------------------------------------------------
                            Total      Total      Total      Total     Imperv       Perv      Total       Total     Peak  Runoff
                           Precip      Runon       Evap      Infil     Runoff     Runoff     Runoff      Runoff   Runoff   Coeff
  Subcatchment                 mm         mm         mm         mm         mm         mm         mm    10^6 ltr      LPS
  ------------------------------------------------------------------------------------------------------------------------------
  sub0                       2.75       0.00       0.00       0.19       1.29       0.00       1.29        0.00     0.28   0.470
  sub1                       2.75       0.00       0.00       0.30       1.20       0.00       1.20        0.01     1.48   0.436
  sub2                       2.75       0.00       0.00       1.02       0.83       0.00       0.83        0.01     1.32   0.303
  sub3                       2.75       0.00       0.00       1.02       0.81       0.00       0.81        0.02     2.71   0.294
  sub4                       2.75       0.00       0.00       0.30       1.10       0.00       1.10        0.02     3.04   0.399
  sub5                       2.75       0.00       0.00       0.19       1.25       0.00       1.25        0.01     2.63   0.455
  sub7                       2.75       0.00       0.00       0.25       1.25       0.00       1.25        0.00     0.92   0.454
  sub8                       2.75       0.00       0.00       0.25       1.24       0.00       1.24        0.01     1.63   0.452
  sub9                       2.75       0.00       0.00       0.25       1.24       0.00       1.24        0.01     1.21   0.451
  sub10                      2.75       0.00       0.00       0.22       1.24       0.00       1.24        0.01     2.62   0.452
  sub11                      2.75       0.00       0.00       0.22       1.26       0.00       1.26        0.01     3.06   0.458
  sub12                      2.75       0.00       0.00       0.36       1.21       0.00       1.21        0.01     2.56   0.438
  sub14                      2.75       0.00       0.00       0.25       1.24       0.00       1.24        0.01     2.36   0.450
  sub15                      2.75       0.00       0.00       0.83       0.95       0.00       0.95        0.02     3.21   0.346
  sub16                      2.75       0.00       0.00       0.91       0.93       0.00       0.93        0.01     2.25   0.336
  sub17                      2.75       0.00       0.00       0.88       0.94       0.00       0.94        0.01     1.82   0.341
  sub22                      2.75       0.00       0.00       1.18       0.78       0.00       0.78        0.05    10.44   0.284
  sub23                      2.75       0.00       0.00       1.02       0.86       0.00       0.86        0.04     8.88   0.314
  sub60                      2.75       0.00       0.00       0.33       0.62       0.00       0.62        0.19    14.21   0.224
  sub61                      2.75       0.00       0.00       0.47       0.71       0.00       0.71        0.22    18.58   0.257
  sub62                      2.75       0.00       0.00       0.22       0.74       0.00       0.74        0.23    18.79   0.270
  sub63                      2.75       0.00       0.00       0.80       0.65       0.00       0.65        0.20    17.54   0.235
  sub64                      2.75       0.00       0.00       0.41       0.59       0.00       0.59        0.18    13.45   0.213
  sub65                      2.75       0.00       0.00       0.36       0.59       0.00       0.59        0.18    13.60   0.215
  sub66                      2.75       0.00       0.00       0.80       0.52       0.00       0.52        0.16    12.51   0.190
  sub67                      2.75       0.00       0.00       0.22       0.87       0.00       0.87        0.27    24.78   0.316
  sub68                      2.75       0.00       0.00       0.39       0.76       0.00       0.76        0.24    20.70   0.278
  sub69                      2.75       0.00       0.00       0.41       0.89       0.00       0.89        0.21    20.96   0.322
  sub70                      2.75       0.90       0.00       1.24       0.90       0.00       0.90        0.21    13.67   0.246
  sub71                      2.75       0.00       0.00       0.22       0.69       0.00       0.69        0.16    12.93   0.252
  sub72                      2.75       0.00       0.00       0.19       0.43       0.00       0.43        0.09     5.63   0.155
  sub73                      2.75       0.87       0.00       1.23       0.82       0.00       0.82        0.19    11.86   0.226
  sub74                      2.75       0.00       0.00       2.06       0.27       0.00       0.27        0.11    11.76   0.099
  
  
  ******************
  Node Depth Summary
  ******************
  
  ---------------------------------------------------------------------------------
                                 Average  Maximum  Maximum  Time of Max    Reported
                                   Depth    Depth      HGL   Occurrence   Max Depth
  Node                 Type       Meters   Meters   Meters  days hr:min      Meters
  ---------------------------------------------------------------------------------
  WS02001211           JUNCTION     0.59     0.61     5.45     0  01:21        0.61
  WS02001212           JUNCTION     0.32     0.34     5.40     0  01:24        0.34
  WS02001213           JUNCTION     0.48     0.54     5.30     0  03:18        0.54
  WS02003069           JUNCTION     0.27     0.33     4.91     0  03:17        0.33
  WS02003072           JUNCTION     0.33     0.40     4.77     0  03:18        0.40
  WS02003073           JUNCTION     0.19     0.23     4.30     0  03:19        0.23
  WS02003060           JUNCTION     0.24     0.30     5.23     0  03:16        0.30
  WS02003066           JUNCTION     0.11     0.17     5.73     0  03:15        0.17
  WS02003059           JUNCTION     0.54     0.60     5.28     0  03:17        0.60
  WS02003067           JUNCTION     0.31     0.46     5.78     0  03:15        0.46
  WS02004401           JUNCTION     0.38     0.51     6.51     0  03:09        0.51
  WS02004402           JUNCTION     0.41     0.54     6.50     0  03:09        0.54
  WS02004403           JUNCTION     0.44     0.57     6.50     0  03:10        0.57
  WS02004404           JUNCTION     0.51     0.65     6.50     0  03:10        0.65
  WS02004406           JUNCTION     0.52     0.67     6.50     0  03:10        0.67
  WS02004409           JUNCTION     0.18     0.31     6.08     0  03:13        0.31
  WS02004410           JUNCTION     0.21     0.34     6.06     0  03:14        0.34
  WS02004411           JUNCTION     0.23     0.37     6.05     0  03:14        0.37
  WS02004412           JUNCTION     0.26     0.40     6.04     0  03:14        0.40
  WS02004413           JUNCTION     0.40     0.57     6.04     0  03:15        0.57
  WS02004405           JUNCTION     0.51     0.65     6.50     0  03:10        0.65
  WS02006109           JUNCTION     0.42     0.54     7.16     0  03:04        0.54
  WS02006110           JUNCTION     0.44     0.57     7.15     0  03:04        0.57
  WS02006111           JUNCTION     0.09     0.14     6.85     0  03:04        0.14
  WS02006112           JUNCTION     0.50     0.65     6.53     0  03:08        0.65
  WS02006113           JUNCTION     0.13     0.21     7.10     0  03:04        0.21
  WS02006115           JUNCTION     0.26     0.38     6.52     0  03:08        0.38
  WS02006116           JUNCTION     0.35     0.47     6.51     0  03:09        0.47
  WS02006230           JUNCTION     0.32     0.44     7.18     0  03:04        0.44
  WS02006231           JUNCTION     0.18     0.32     7.44     0  00:10        0.31
  WS02006232           JUNCTION     0.28     0.43     7.47     0  00:10        0.43
  WS02006234           JUNCTION     0.17     0.33     7.48     0  00:10        0.33
  WS02006235           JUNCTION     0.20     0.36     7.52     0  00:09        0.35
  WS02006238           JUNCTION     0.22     0.38     7.52     0  00:09        0.38
  WS02006240           JUNCTION     0.08     0.23     7.53     0  00:10        0.23
  WS02006242           JUNCTION     0.11     0.26     7.53     0  00:10        0.26
  WS02006243           JUNCTION     0.03     0.11     7.53     0  00:11        0.11
  WS02006245           JUNCTION     0.04     0.08     7.56     0  02:42        0.08
  WS02006247           JUNCTION     0.04     0.09     7.59     0  02:42        0.09
  WS02006248           JUNCTION     0.03     0.06     7.65     0  02:40        0.06
  WS02006249           JUNCTION     0.05     0.10     7.70     0  02:40        0.10
  WS02006239           JUNCTION     0.15     0.31     7.52     0  00:10        0.31
  WS02006251           JUNCTION     0.03     0.07     7.74     0  02:38        0.07
  WS02006252           JUNCTION     0.00     0.00     8.24     0  00:00        0.00
  WS02006253           JUNCTION     0.06     0.12     7.76     0  02:37        0.12
  WS02006256           JUNCTION     0.52     1.15     8.09     0  00:00        1.10
  WS02004138           JUNCTION     0.14     0.14     7.39     0  00:00        0.14
  WS02004407           JUNCTION     0.08     0.14     6.46     0  03:10        0.14
  WS02006228           JUNCTION     0.39     0.52     7.17     0  03:03        0.52
  WS02006229           JUNCTION     0.36     0.48     7.17     0  03:03        0.48
  WS02006280           JUNCTION     0.03     0.07     8.34     0  02:39        0.07
  WS02006284           JUNCTION     0.29     0.38     8.78     0  02:39        0.38
  WS02006287           JUNCTION     0.05     0.10     9.06     0  02:38        0.10
  WSF200               JUNCTION     0.08     0.14     5.37     0  03:15        0.14
  HS02004901           JUNCTION     0.08     0.14     9.96     0  02:37        0.14
  HS02004881           JUNCTION     0.00     0.01     9.04     0  02:36        0.01
  HS02004876           JUNCTION     0.02     0.05     9.08     0  02:37        0.05
  HS02004870           JUNCTION     0.01     0.01     9.30     0  02:34        0.01
  HS02004862           JUNCTION     0.01     0.02     9.40     0  02:37        0.02
  HS02004856           JUNCTION     0.05     0.08     9.51     0  02:35        0.08
  HS02004852           JUNCTION     0.00     0.01     9.52     0  02:37        0.01
  HS02004848           JUNCTION     0.00     0.01     9.61     0  02:31        0.01
  HS02004842           JUNCTION     0.29     0.34     9.61     0  02:31        0.34
  HS02004837           JUNCTION     0.02     0.03     9.61     0  02:31        0.03
  HS02004830           JUNCTION     0.03     0.04     9.51     0  02:32        0.04
  HS02004824           JUNCTION     0.01     0.02     9.42     0  02:35        0.02
  HS02004817           JUNCTION     0.36     0.45     9.30     0  02:38        0.45
  HS02004807           JUNCTION     0.08     0.13     9.30     0  02:38        0.13
  HS02004802           JUNCTION     0.12     0.17     9.29     0  02:38        0.17
  HS02004799           JUNCTION     0.07     0.13     9.34     0  02:36        0.13
  HS02004792           JUNCTION     0.01     0.04     9.56     0  02:35        0.04
  HS02004788           JUNCTION     0.01     0.03     9.93     0  02:38        0.03
  HS02004785           JUNCTION     0.02     0.06     9.96     0  02:38        0.06
  HS02004777           JUNCTION     0.10     0.16     9.96     0  02:38        0.16
  HS02004770           JUNCTION     0.07     0.13     9.96     0  02:38        0.13
  HS02004480           JUNCTION     0.04     0.09     9.33     0  02:37        0.09
  HS02004479           JUNCTION     0.07     0.13     9.33     0  02:37        0.13
  HS02004478           JUNCTION     0.03     0.06     9.29     0  02:38        0.06
  YS02001745           JUNCTION     0.03     0.05     7.57     0  03:01        0.05
  YS02001748           JUNCTION     0.08     0.22     7.30     0  07:49        0.22
  YS02001751           JUNCTION     0.18     0.42     7.30     0  07:48        0.42
  YS02001754           JUNCTION     0.36     0.69     7.30     0  07:48        0.69
  YS02001762           JUNCTION     0.51     0.90     7.30     0  07:50        0.90
  YS02001765           JUNCTION     0.48     0.85     7.30     0  07:49        0.85
  YS02001767           JUNCTION     0.45     0.81     7.30     0  07:49        0.81
  YS02001770           JUNCTION     0.45     0.80     7.30     0  07:49        0.80
  YS02001774           JUNCTION     0.50     0.87     7.30     0  07:50        0.87
  YS02001779           JUNCTION     0.30     0.61     7.30     0  07:49        0.61
  YS02001882           JUNCTION     0.13     0.22     6.94     0  03:03        0.22
  YS02001884           JUNCTION     0.21     0.32     6.94     0  03:03        0.32
  YS02001759           JUNCTION     0.54     0.93     7.30     0  07:48        0.93
  YS02001887           JUNCTION     0.28     0.40     6.94     0  03:03        0.40
  YS02001890           JUNCTION     0.31     0.43     6.94     0  03:03        0.43
  YS02001898           JUNCTION     0.11     0.19     6.92     0  03:04        0.19
  YS02001901           JUNCTION     0.20     0.32     6.92     0  03:04        0.32
  YS02001904           JUNCTION     0.18     0.29     6.92     0  03:05        0.29
  YS02001907           JUNCTION     0.47     0.63     6.92     0  03:04        0.63
  YS02001910           JUNCTION     0.28     0.42     6.92     0  03:04        0.42
  YS02001915           JUNCTION     0.13     0.21     6.92     0  03:04        0.21
  YS02001918           JUNCTION     0.04     0.05     7.12     0  03:07        0.05
  YS02001619           JUNCTION     0.16     0.37     7.30     0  07:49        0.37
  YS02001629           JUNCTION     0.40     0.75     7.30     0  07:49        0.75
  YS02001641           JUNCTION     0.49     0.86     7.30     0  07:48        0.86
  YS02001644           JUNCTION     0.49     0.86     7.30     0  07:49        0.86
  YS02001652           JUNCTION     0.37     0.70     7.30     0  07:49        0.70
  YS02001655           JUNCTION     0.20     0.45     7.30     0  07:49        0.45
  YS02001920           JUNCTION     0.11     0.13     7.14     0  03:06        0.13
  YS02001923           JUNCTION     0.02     0.04     7.30     0  03:04        0.04
  YS02001926           JUNCTION     0.07     0.09     7.54     0  03:03        0.09
  YS02001929           JUNCTION     0.02     0.04     7.73     0  03:01        0.04
  YS02001658           JUNCTION     0.05     0.16     7.30     0  07:48        0.16
  YS02001661           JUNCTION     0.09     0.13     7.53     0  03:01        0.13
  YS02001664           JUNCTION     0.03     0.05     7.98     0  03:01        0.05
  YS02001622           JUNCTION     0.17     0.39     7.30     0  07:50        0.39
  YS02001633           JUNCTION     0.48     0.84     7.30     0  07:49        0.84
  YS02001649           JUNCTION     0.52     0.91     7.30     0  07:49        0.91
  YS02001757           JUNCTION     0.63     1.04     7.30     0  07:48        1.04
  YS02001895           JUNCTION     0.11     0.19     6.93     0  03:03        0.19
  YS02001625           JUNCTION     0.38     0.69     7.30     0  07:49        0.69
  YS02163301           JUNCTION     0.42     0.78     7.30     0  07:49        0.78
  YS02163601           JUNCTION     0.52     0.90     7.30     0  07:50        0.90
  YS02164001           JUNCTION     0.47     0.84     7.30     0  07:48        0.84
  YS02001647           JUNCTION     0.36     0.69     7.30     0  07:49        0.69
  YSB1154              JUNCTION     0.19     0.28     9.33     0  02:37        0.28
  YSB6556              JUNCTION     0.10     0.17     9.33     0  02:38        0.17
  YSB1174              JUNCTION     0.15     0.23     9.33     0  02:37        0.23
  YSB1171              JUNCTION     0.33     0.43     9.33     0  02:37        0.43
  YS02006553           JUNCTION     0.47     0.64     6.92     0  03:04        0.64
  YS02006561           JUNCTION     0.06     0.10     6.76     0  03:05        0.10
  YS02006556           JUNCTION     0.45     0.61     6.92     0  03:05        0.61
  YS02006558           JUNCTION     0.50     0.66     6.92     0  03:05        0.66
  YS02001783           JUNCTION     0.09     0.17     6.31     0  03:05        0.17
  YS02001784           JUNCTION     0.12     0.20     6.27     0  03:06        0.20
  YS02001786           JUNCTION     0.11     0.17     6.20     0  03:06        0.17
  YS02001788           JUNCTION     0.07     0.12     6.10     0  03:06        0.12
  YS02001790           JUNCTION     0.09     0.15     5.79     0  03:07        0.15
  YS02001791           JUNCTION     0.06     0.10     5.57     0  03:07        0.10
  YS02001793           JUNCTION     0.04     0.07     4.90     0  03:07        0.07
  WS02004139           JUNCTION     0.54     0.55     5.46     0  02:18        0.55
  WSC                  OUTFALL      0.19     0.23     0.90     0  03:19        0.23
  3                    OUTFALL      0.01     0.13     6.13     0  00:00        0.10
  4                    OUTFALL      0.00     0.00     7.00     0  00:00        0.00
  5                    OUTFALL      0.00     0.00     5.00     0  00:00        0.00
  JK-storage           STORAGE      0.14     3.00     3.80     0  00:00        2.70
  CC-storage           STORAGE      0.10     0.30     7.30     0  07:50        0.30
  XR-storage           STORAGE      6.70     7.72     5.72     0  04:28        7.72
  
  
  *******************
  Node Inflow Summary
  *******************
  
  -------------------------------------------------------------------------------------------------
                                  Maximum  Maximum                  Lateral       Total        Flow
                                  Lateral    Total  Time of Max      Inflow      Inflow     Balance
                                   Inflow   Inflow   Occurrence      Volume      Volume       Error
  Node                 Type           LPS      LPS  days hr:min    10^6 ltr    10^6 ltr     Percent
  -------------------------------------------------------------------------------------------------
  WS02001211           JUNCTION      7.35   197.67     0  03:20       0.207        5.54       0.549
  WS02001212           JUNCTION      0.00   197.67     0  01:24           0        5.51       0.287
  WS02001213           JUNCTION      0.00   197.67     0  01:24           0        5.49       0.320
  WS02003069           JUNCTION      0.32   338.79     0  03:17     0.00902        7.37       0.221
  WS02003072           JUNCTION      0.00   338.77     0  03:17           0        7.35       0.302
  WS02003073           JUNCTION      1.82   340.58     0  03:18      0.0514        7.38       0.311
  WS02003060           JUNCTION     16.53   338.47     0  03:16       0.466        7.38       0.211
  WS02003066           JUNCTION      0.00   124.36     0  03:15           0        1.47       0.124
  WS02003059           JUNCTION      0.00   197.81     0  03:39           0        5.48       0.547
  WS02003067           JUNCTION      0.00   124.36     0  03:15           0        1.47       0.337
  WS02004401           JUNCTION      0.00   125.04     0  03:07           0         1.6       0.751
  WS02004402           JUNCTION      0.00   124.91     0  03:07           0        1.58       0.757
  WS02004403           JUNCTION      0.00   124.82     0  03:08           0        1.57       0.731
  WS02004404           JUNCTION      0.16   124.92     0  03:08     0.00457        1.56       0.597
  WS02004406           JUNCTION      0.00   124.90     0  03:09           0        1.54       1.497
  WS02004409           JUNCTION      0.00   124.87     0  03:10           0        1.52       0.311
  WS02004410           JUNCTION      0.00   124.72     0  03:11           0        1.51       0.424
  WS02004411           JUNCTION      0.00   124.57     0  03:12           0        1.51       0.502
  WS02004412           JUNCTION      0.00   124.46     0  03:13           0         1.5       0.635
  WS02004413           JUNCTION      0.00   124.39     0  03:14           0        1.49       1.074
  WS02004405           JUNCTION      0.04   124.93     0  03:09     0.00107        1.56       0.900
  WS02006109           JUNCTION      1.23   124.85     0  03:02      0.0347        1.65       0.786
  WS02006110           JUNCTION      0.00   124.81     0  03:03           0        1.64       0.612
  WS02006111           JUNCTION      0.00   125.47     0  03:04           0        1.62       0.093
  WS02006112           JUNCTION      1.82   125.69     0  03:04     0.00804        1.63       1.144
  WS02006113           JUNCTION      0.00   124.79     0  03:04           0        1.63       0.170
  WS02006115           JUNCTION      0.00   125.44     0  03:05           0        1.61       0.510
  WS02006116           JUNCTION      0.00   125.21     0  03:06           0         1.6       0.542
  WS02006230           JUNCTION     10.28   128.85     0  00:10        0.29        1.22       0.527
  WS02006231           JUNCTION      0.00   120.56     0  00:10           0       0.935       0.271
  WS02006232           JUNCTION      0.00   122.97     0  00:10           0       0.943       0.770
  WS02006234           JUNCTION      0.00   126.26     0  00:09           0       0.942      -0.022
  WS02006235           JUNCTION      0.00   166.25     0  00:01           0       0.971       0.468
  WS02006238           JUNCTION      0.00    88.92     0  00:00           0      0.0837       1.844
  WS02006240           JUNCTION      0.00    40.17     0  00:02           0      0.0642       0.703
  WS02006242           JUNCTION      0.00    28.67     0  00:04           0      0.0551       1.341
  WS02006243           JUNCTION      0.00     9.12     0  00:06           0      0.0481       0.010
  WS02006245           JUNCTION      0.00     7.72     0  02:42           0      0.0464       0.826
  WS02006247           JUNCTION      0.00     7.73     0  02:40           0      0.0461       0.234
  WS02006248           JUNCTION      0.00     7.73     0  02:40           0      0.0461       0.068
  WS02006249           JUNCTION      0.00     7.75     0  02:38           0      0.0464       0.710
  WS02006239           JUNCTION      0.00    71.07     0  00:01           0      0.0742       1.836
  WS02006251           JUNCTION      0.08     7.76     0  02:36     0.00217      0.0465       0.161
  WS02006252           JUNCTION      0.00     0.00     0  00:00           0           0       0.000 ltr
  WS02006253           JUNCTION      0.28     7.69     0  02:36     0.00105      0.0444       0.351
  WS02006256           JUNCTION      0.00   300.00     0  00:00           0       0.997       0.194
  WS02004138           JUNCTION      0.00   190.00     0  00:20           0        5.36       0.074
  WS02004407           JUNCTION      0.00   124.88     0  03:10           0        1.52       0.152
  WS02006228           JUNCTION      0.00   123.67     0  03:02           0        1.62       0.461
  WS02006229           JUNCTION      0.00   125.25     0  00:10           0        1.63       0.374
  WS02006280           JUNCTION      0.00    48.81     0  02:39           0       0.412       0.019
  WS02006284           JUNCTION      0.10    48.82     0  02:38      0.0027       0.414       0.286
  WS02006287           JUNCTION      0.00    48.73     0  02:38           0       0.412       0.168
  WSF200               JUNCTION      0.00   124.35     0  03:15           0        1.47       0.087
  HS02004901           JUNCTION      2.25     2.25     0  02:24     0.00969     0.00983      21.719
  HS02004881           JUNCTION      0.92     7.47     0  02:36     0.00421      0.0435       0.131
  HS02004876           JUNCTION      1.48     6.67     0  02:33     0.00797      0.0397       1.279
  HS02004870           JUNCTION      1.63     5.23     0  02:33     0.00794      0.0319       0.324
  HS02004862           JUNCTION      1.52     3.69     0  02:34      0.0134      0.0241       0.677
  HS02004856           JUNCTION      1.21     2.19     0  02:33     0.00597      0.0121      13.403
  HS02004852           JUNCTION      0.00     1.05     0  02:35           0     0.00619       0.678
  HS02004848           JUNCTION      2.71     2.71     0  02:34      0.0182      0.0182       0.211
  HS02004842           JUNCTION      0.00     4.47     0  00:03           0       0.025     107.951
  HS02004837           JUNCTION      8.97    10.62     0  02:30       0.193       0.205       0.399
  HS02004830           JUNCTION      0.15    10.76     0  02:32     0.00423       0.195       0.634
  HS02004824           JUNCTION      3.09    13.83     0  02:35      0.0243       0.218       0.247
  HS02004817           JUNCTION      0.60    14.43     0  02:35      0.0169       0.235       7.637
  HS02004807           JUNCTION      3.06    17.24     0  02:35      0.0146       0.233       1.847
  HS02004802           JUNCTION      0.00    17.20     0  02:37           0       0.228       1.803
  HS02004799           JUNCTION      2.36    26.93     0  02:35      0.0118       0.177       1.267
  HS02004792           JUNCTION     10.72    24.69     0  02:35      0.0572       0.166       0.255
  HS02004788           JUNCTION      4.88    14.75     0  02:37      0.0634        0.11       0.360
  HS02004785           JUNCTION      0.15    10.13     0  02:36     0.00423      0.0485       0.978
  HS02004777           JUNCTION      0.03    10.23     0  02:33    0.000846      0.0486      11.870
  HS02004770           JUNCTION      8.88    10.72     0  02:27      0.0412      0.0493       6.703
  HS02004480           JUNCTION      0.00    31.57     0  02:36           0       0.199       0.295
  HS02004479           JUNCTION      0.00     4.70     0  02:38           0      0.0345       2.148
  HS02004478           JUNCTION      0.00    48.73     0  02:38           0       0.413       0.179
  YS02001745           JUNCTION     14.22    14.22     0  03:01       0.187       0.187       0.128
  YS02001748           JUNCTION      0.04    14.25     0  03:01     0.00127       0.188       1.488
  YS02001751           JUNCTION      0.01    18.70     0  05:22     0.00031       0.194       5.037
  YS02001754           JUNCTION      0.26    40.81     0  05:14     0.00733       0.222       8.345
  YS02001762           JUNCTION      0.00    22.88     0  03:10           0       0.175      12.556
  YS02001765           JUNCTION      0.00    23.11     0  03:04           0       0.176      13.901
  YS02001767           JUNCTION      0.54    23.22     0  03:05      0.0151       0.193      18.751
  YS02001770           JUNCTION     18.95    21.62     0  03:11       0.232       0.236      12.443
  YS02001774           JUNCTION      0.00    10.87     0  02:56           0      0.0424     110.973
  YS02001779           JUNCTION      0.01     5.34     0  03:08    0.000141      0.0162     171.978
  YS02001882           JUNCTION      0.00     1.15     0  02:13           0     0.00198     130.101
  YS02001884           JUNCTION      0.00     3.66     0  02:09           0     0.00838      77.169
  YS02001759           JUNCTION     18.62    41.11     0  03:10       0.219       0.362       6.407
  YS02001887           JUNCTION     25.23    25.23     0  03:01       0.281       0.284       2.096
  YS02001890           JUNCTION      0.00    24.98     0  03:00           0        0.27       2.451
  YS02001898           JUNCTION      0.00    24.78     0  03:02           0       0.262       0.527
  YS02001901           JUNCTION      0.00    24.88     0  03:03           0       0.262       1.646
  YS02001904           JUNCTION      0.00    24.77     0  03:04           0       0.262       1.542
  YS02001907           JUNCTION      0.00    45.98     0  03:06           0        0.58       3.568
  YS02001910           JUNCTION      0.00    21.43     0  03:01           0       0.328       2.677
  YS02001915           JUNCTION     12.94    21.37     0  03:01       0.164       0.331       0.927
  YS02001918           JUNCTION      0.00     8.55     0  03:05           0       0.168       0.330
  YS02001619           JUNCTION     12.51    12.51     0  03:01        0.16        0.16       2.597
  YS02001629           JUNCTION      0.00    15.24     0  03:10           0        0.12      13.875
  YS02001641           JUNCTION      0.00    31.42     0  03:09           0       0.228       9.027
  YS02001644           JUNCTION     13.49    42.57     0  03:09       0.179       0.381       6.480
  YS02001652           JUNCTION      0.00    19.94     0  03:06           0       0.189       9.714
  YS02001655           JUNCTION      0.15    17.68     0  03:01     0.00434       0.197       5.587
  YS02001920           JUNCTION      2.87     8.55     0  03:04      0.0809       0.169       0.808
  YS02001923           JUNCTION      0.04     5.68     0  03:03     0.00106      0.0882       0.153
  YS02001926           JUNCTION      0.05     5.67     0  03:01     0.00147      0.0882       1.161
  YS02001929           JUNCTION      5.63     5.63     0  03:01      0.0868      0.0868       0.138
  YS02001658           JUNCTION      0.00    17.53     0  03:01           0       0.196       1.249
  YS02001661           JUNCTION      0.00    17.54     0  03:01           0       0.196       0.305
  YS02001664           JUNCTION     17.54    17.54     0  03:01       0.196       0.196       0.055
  YS02001622           JUNCTION      0.00    13.28     0  03:08           0       0.156       8.489
  YS02001633           JUNCTION     13.80    28.85     0  03:09       0.187       0.277      11.233
  YS02001649           JUNCTION      0.00    58.85     0  03:08           0       0.498       7.307
  YS02001757           JUNCTION      0.00   104.70     0  03:10           0       0.965      10.406
  YS02001895           JUNCTION      0.00    24.82     0  03:02           0       0.264       0.877
  YS02001625           JUNCTION      0.00    15.03     0  03:07           0       0.144      22.076
  YS02163301           JUNCTION      0.00    16.07     0  03:10           0       0.111      21.657
  YS02163601           JUNCTION      0.11    30.56     0  03:09      0.0031       0.249      12.524
  YS02164001           JUNCTION      0.00    31.40     0  03:09           0        0.23       8.266
  YS02001647           JUNCTION      0.00    43.25     0  03:08           0       0.348       6.453
  YSB1154              JUNCTION      2.63     2.63     0  02:28      0.0142      0.0157      10.128
  YSB6556              JUNCTION      0.00     2.60     0  02:33           0      0.0168       7.962
  YSB1174              JUNCTION      2.56     2.56     0  02:23      0.0105      0.0116      12.439
  YSB1171              JUNCTION      0.00     4.77     0  02:35           0       0.034      22.804
  YS02006553           JUNCTION      0.00    46.06     0  03:06           0       0.567       2.351
  YS02006561           JUNCTION      0.00    66.97     0  03:05           0       0.785       0.045
  YS02006556           JUNCTION      0.00    46.12     0  03:06           0       0.568       1.661
  YS02006558           JUNCTION     21.58    66.99     0  03:05        0.26       0.808       0.494
  YS02001783           JUNCTION      0.00    66.97     0  03:05           0       0.785       0.105
  YS02001784           JUNCTION      1.06    68.01     0  03:05      0.0299       0.814       0.179
  YS02001786           JUNCTION      0.06    68.05     0  03:06     0.00159       0.814       0.181
  YS02001788           JUNCTION      0.07    68.12     0  03:06       0.002       0.814       0.096
  YS02001790           JUNCTION      0.15    68.27     0  03:06     0.00437       0.818       0.124
  YS02001791           JUNCTION      0.00    68.27     0  03:07           0       0.817       0.059
  YS02001793           JUNCTION      0.00    68.27     0  03:07           0       0.817       0.029
  WS02004139           JUNCTION      0.32   191.11     0  00:00     0.00905        5.36       0.590
  WSC                  OUTFALL       0.00   340.57     0  03:19           0        7.36       0.000
  3                    OUTFALL       0.00   250.55     0  00:00           0       0.088       0.000
  4                    OUTFALL       0.00     0.00     0  00:00           0           0       0.000 ltr
  5                    OUTFALL       0.00     0.00     0  00:00           0           0       0.000 ltr
  JK-storage           STORAGE       0.00    68.27     0  03:07           0       0.967      -2.837
  CC-storage           STORAGE       0.00    89.26     0  03:13           0       0.842       2.053
  XR-storage           STORAGE     223.44   223.44     0  03:01        5.94        6.54       0.001
  
  
  **********************
  Node Surcharge Summary
  **********************
  
  Surcharging occurs when water rises above the top of the highest conduit.
  ---------------------------------------------------------------------
                                               Max. Height   Min. Depth
                                   Hours       Above Crown    Below Rim
  Node                 Type      Surcharged         Meters       Meters
  ---------------------------------------------------------------------
  YS02001757           JUNCTION        0.92          0.036        1.174
  
  
  *********************
  Node Flooding Summary
  *********************
  
  Flooding refers to all water that overflows a node, whether it ponds or not.
  --------------------------------------------------------------------------
                                                             Total   Maximum
                                 Maximum   Time of Max       Flood    Ponded
                        Hours       Rate    Occurrence      Volume     Depth
  Node                 Flooded       LPS   days hr:min    10^6 ltr    Meters
  --------------------------------------------------------------------------
  XR-storage              3.36     25.06      0  04:28       0.257     0.000
  
  
  **********************
  Storage Volume Summary
  **********************
  
  --------------------------------------------------------------------------------------------------
                         Average     Avg  Evap Exfil       Maximum     Max    Time of Max    Maximum
                          Volume    Pcnt  Pcnt  Pcnt        Volume    Pcnt     Occurrence    Outflow
  Storage Unit           1000 m3    Full  Loss  Loss       1000 m3    Full    days hr:min        LPS
  --------------------------------------------------------------------------------------------------
  JK-storage               0.007       2     0     0         0.151      52       0  00:00     300.00
  CC-storage               0.277       2     0     0         0.825       5       0  07:50       0.00
  XR-storage               0.804      87     0     0         0.926     100       0  04:28     190.00
  
  
  ***********************
  Outfall Loading Summary
  ***********************
  
  -----------------------------------------------------------
                         Flow       Avg       Max       Total
                         Freq      Flow      Flow      Volume
  Outfall Node           Pcnt       LPS       LPS    10^6 ltr
  -----------------------------------------------------------
  WSC                   99.98    245.76    340.57       7.361
  3                      9.63    150.64    250.55       0.088
  4                      0.00      0.00      0.00       0.000
  5                      0.00      0.00      0.00       0.000
  -----------------------------------------------------------
  System                27.40    396.39    340.57       7.449
  
  
  ********************
  Link Flow Summary
  ********************
  
  -----------------------------------------------------------------------------
                                 Maximum  Time of Max   Maximum    Max/    Max/
                                  |Flow|   Occurrence   |Veloc|    Full    Full
  Link                 Type          LPS  days hr:min     m/sec    Flow   Depth
  -----------------------------------------------------------------------------
  WS02003066WSF200     CONDUIT    124.35     0  03:15      1.90    0.02    0.11
  WS02006287WS02006284 CONDUIT     48.72     0  02:38      0.95    0.02    0.12
  WS02006284WS02006280 CONDUIT     48.81     0  02:39      1.22    0.02    0.10
  WS02006280WS02006229 CONDUIT     48.81     0  02:39      1.93    0.01    0.07
  WS02006229WS02006228 CONDUIT    123.67     0  03:02      0.83    0.41    0.60
  WS02006256WS02006235 CONDUIT    166.25     0  00:01      2.58    1.76    1.00
  WS02006253WS02006251 CONDUIT      7.69     0  02:36      0.26    0.02    0.13
  WS02006252WS02006251 CONDUIT      0.00     0  00:00      0.00    0.00    0.00
  WS02006251WS02006249 CONDUIT      7.75     0  02:38      0.29    0.02    0.12
  WS02006249WS02006248 CONDUIT      7.73     0  02:40      0.35    0.04    0.11
  WS02006248WS02006247 CONDUIT      7.73     0  02:40      0.37    0.02    0.10
  WS02006247WS02006245 CONDUIT      7.72     0  02:42      0.31    0.06    0.11
  WS02006245WS02006243 CONDUIT      7.72     0  02:43      0.42    0.02    0.10
  WS02006243WS02006242 CONDUIT     14.59     0  00:12      0.32    0.03    0.24
  WS02006242WS02006240 CONDUIT     29.18     0  00:12      0.64    0.12    0.34
  WS02006240WS02006239 CONDUIT     42.40     0  00:11      0.58    0.13    0.36
  WS02006239WS02006238 CONDUIT     71.07     0  00:01      0.67    0.23    0.48
  WS02006238WS02006235 CONDUIT     95.49     0  00:11      1.25    0.21    0.52
  WS02006235WS02006234 CONDUIT    126.26     0  00:09      0.93    1.33    0.47
  WS02006234WS02006232 CONDUIT    122.97     0  00:10      1.13    0.25    0.54
  WS02006232WS02006231 CONDUIT    120.56     0  00:10      0.63    0.25    0.53
  WS02006231WS02006230 CONDUIT    118.57     0  00:10      0.90    1.80    0.38
  WS02006230WS02006229 CONDUIT    125.25     0  00:10      0.86    2.79    0.62
  WS02006228WS02006109 CONDUIT    123.62     0  03:02      0.75    0.54    0.65
  WS02006116WS02004401 CONDUIT    125.04     0  03:07      0.73    0.17    0.49
  WS02006115WS02006116 CONDUIT    125.21     0  03:06      0.79    0.16    0.39
  WS02006113WS02006111 CONDUIT    125.47     0  03:04      1.54    0.15    0.22
  WS02006112WS02006115 CONDUIT    125.44     0  03:05      0.33    0.07    0.51
  WS02006111WS02006112 CONDUIT    124.81     0  03:04      1.32    0.06    0.47
  WS02006110WS02006113 CONDUIT    124.79     0  03:04      0.52    0.11    0.48
  WS02006109WS02006110 CONDUIT    124.81     0  03:03      0.53    0.24    0.62
  WS02004411WS02004412 CONDUIT    124.46     0  03:13      0.45    0.18    0.38
  WS02004401WS02004402 CONDUIT    124.91     0  03:07      0.77    0.15    0.52
  WS02004413WS02003067 CONDUIT    124.36     0  03:15      0.49    0.05    0.36
  WS02004412WS02004413 CONDUIT    124.39     0  03:14      0.36    0.08    0.48
  WS02004410WS02004411 CONDUIT    124.57     0  03:12      0.50    0.17    0.35
  WS02004409WS02004410 CONDUIT    124.72     0  03:11      0.56    0.16    0.33
  WS02004407WS02004409 CONDUIT    124.87     0  03:10      0.93    0.04    0.23
  WS02004406WS02004407 CONDUIT    124.88     0  03:10      0.42    0.06    0.41
  WS02004405WS02004406 CONDUIT    124.90     0  03:09      0.66    0.25    0.66
  WS02004404WS02004405 CONDUIT    124.89     0  03:09      0.84    1.22    0.65
  WS02004403WS02004404 CONDUIT    124.76     0  03:08      0.74    0.09    0.61
  WS02004402WS02004403 CONDUIT    124.82     0  03:08      0.75    0.18    0.56
  WS02004139WS02001211 CONDUIT    190.32     0  03:20      0.69    0.24    0.44
  WS02004138WS02004139 CONDUIT    190.79     0  00:00      2.94    0.04    0.32
  WS02003067WS02003066 CONDUIT    124.36     0  03:15      0.52    0.04    0.26
  WS02001213WS02003059 CONDUIT    197.81     0  03:39      0.65    0.33    0.56
  WS02001212WS02001213 CONDUIT    197.67     0  01:24      1.03    0.30    0.29
  WS02001211WS02001212 CONDUIT    197.67     0  01:24      0.54    0.15    0.48
  WS02003072WS02003073 CONDUIT    338.76     0  03:18      1.21    0.73    0.30
  WS02003069WS02003072 CONDUIT    338.77     0  03:17      1.17    0.16    0.30
  WS02003060WS02003069 CONDUIT    338.47     0  03:17      1.45    0.13    0.26
  WS02003059WS02003060 CONDUIT    198.06     0  03:39      0.67    0.13    0.45
  HS02004901HS02004770 CONDUIT      1.98     0  02:32      0.02    0.01    0.19
  HS02004876HS02004881 CONDUIT      6.63     0  02:37      0.22    0.07    0.04
  HS02004870HS02004876 CONDUIT      5.22     0  02:34      0.16    0.00    0.05
  HS02004842HS02004848 CONDUIT      1.68     0  02:42      0.01    0.00    0.25
  HS02004837HS02004842 CONDUIT      4.47     0  00:03      0.41    0.00    0.26
  HS02004830HS02004837 CONDUIT     10.61     0  02:32      0.31    0.01    0.05
  HS02004824HS02004830 CONDUIT     10.76     0  02:33      0.36    0.01    0.04
  HS02004817HS02004824 CONDUIT     13.83     0  02:35      0.17    0.01    0.33
  HS02004770HS02004777 CONDUIT     10.20     0  02:33      0.07    0.02    0.21
  HS02004799HS02004480 CONDUIT     26.88     0  02:36      0.25    0.03    0.15
  HS02004792HS02004799 CONDUIT     24.68     0  02:35      0.29    0.02    0.12
  HS02004788HS02004792 CONDUIT     14.74     0  02:38      0.47    0.01    0.04
  HS02004785HS02004788 CONDUIT     10.07     0  02:38      0.24    0.08    0.06
  HS02004777HS02004785 CONDUIT      9.98     0  02:36      0.09    0.01    0.16
  HS02004480HS02004478 CONDUIT     31.54     0  02:37      0.49    0.13    0.09
  HS02004479HS02004480 CONDUIT      4.73     0  02:41      0.16    0.00    0.16
  HS02004862HS02004870 CONDUIT      3.68     0  02:36      0.24    0.00    0.02
  HS02004848HS02004852 CONDUIT      1.05     0  02:35      0.14    0.00    0.01
  HS02004856HS02004862 CONDUIT      2.19     0  02:35      0.16    0.00    0.02
  HS02004852HS02004856 CONDUIT      1.04     0  02:37      0.02    0.00    0.06
  HS02004802HS02004478 CONDUIT     17.21     0  02:39      0.15    0.02    0.16
  HS02004478WS02006287 CONDUIT     48.73     0  02:38      0.67    0.01    0.08
  HS02004817HS02004807 CONDUIT     14.42     0  02:40      0.05    0.01    0.41
  HS02004807HS02004802 CONDUIT     17.20     0  02:37      0.19    0.03    0.20
  YS02001759YS02001757 CONDUIT     39.25     0  03:10      0.12    0.03    0.97
  YS02001762YS02001759 CONDUIT     23.62     0  03:10      0.17    0.03    0.91
  YS02001765YS02001762 CONDUIT     22.88     0  03:10      0.22    0.02    0.87
  YS02001770YS02001767 CONDUIT     22.69     0  03:05      0.25    0.09    0.80
  YS02001774YS02001770 CONDUIT     10.87     0  02:56      0.13    0.01    0.82
  YS02001779YS02001774 CONDUIT      5.33     0  03:08      0.02    0.00    0.74
  YS02001649YS02001757 CONDUIT     54.86     0  03:08      0.09    0.03    0.95
  YS02001767YS02001765 CONDUIT     23.11     0  03:04      0.26    0.03    0.83
  YS02006561YS02001783 CONDUIT     66.97     0  03:05      1.19    0.03    0.17
  YS02001783YS02001784 CONDUIT     66.95     0  03:05      0.75    0.09    0.23
  YS02001784YS02001785 CONDUIT     67.99     0  03:06      0.75    0.16    0.24
  YS02001788YS02001790 CONDUIT     68.11     0  03:06      1.21    0.05    0.17
  YS02001790YS02001791 CONDUIT     68.27     0  03:07      1.38    0.07    0.15
  YS02001791YS02001793 CONDUIT     68.27     0  03:07      2.47    0.03    0.10
  YS02001910YS02001907 CONDUIT     21.36     0  03:04      0.49    0.01    0.52
  YS02001786YS02001788 CONDUIT     68.04     0  03:06      1.06    0.13    0.19
  YS02001915YS02001910 CONDUIT     21.43     0  03:01      0.44    0.01    0.31
  YS02001918YS02001915 CONDUIT      8.54     0  03:07      0.44    0.00    0.13
  YS02001923YS02001920 CONDUIT      5.68     0  03:04      0.18    0.00    0.08
  YS02001926YS02001923 CONDUIT      5.65     0  03:03      0.25    0.01    0.07
  YS02001929YS02001926 CONDUIT      5.62     0  03:01      0.26    0.00    0.07
  YS02001920YS02001918 CONDUIT      8.55     0  03:05      0.25    0.01    0.09
  YS02001629YS02163301 CONDUIT     16.07     0  03:10      0.06    0.02    0.76
  YS02001619YS02001622 CONDUIT     13.28     0  03:08      0.41    0.02    0.38
  YS02001622YS02001625 CONDUIT     15.03     0  03:07      0.14    0.01    0.54
  YS02001625YS02001629 CONDUIT     15.24     0  03:10      0.10    0.01    0.53
  YS02163301YS02001633 CONDUIT     15.52     0  03:09      0.05    0.01    0.81
  YS02163601YS02164001 CONDUIT     31.40     0  03:09      0.06    0.03    0.87
  YS02164001YS02001641 CONDUIT     31.42     0  03:09      0.07    0.04    0.85
  YS02001641YS02001644 CONDUIT     29.56     0  03:09      0.08    0.10    0.86
  YS02001647YS02001649 CONDUIT     41.41     0  03:09      0.11    0.02    0.80
  YS02006553YS02006556 CONDUIT     46.12     0  03:06      0.18    0.04    0.61
  YS02006556YS02006558 CONDUIT     46.13     0  03:07      0.09    0.04    0.63
  YSB6556YSB1171       CONDUIT      2.57     0  02:39      0.03    0.00    0.43
  YS02001907YS02006553 CONDUIT     46.06     0  03:06      0.07    0.05    0.69
  YS02006558YS02006561 CONDUIT     66.97     0  03:05      1.50    0.15    0.21
  YS02001633YS02163601 CONDUIT     30.45     0  03:09      0.06    0.03    0.86
  YS02001644YS02001647 CONDUIT     43.25     0  03:08      0.11    0.03    0.78
  YS02001745YS02001748 CONDUIT     14.21     0  03:01      0.88    0.01    0.09
  YS02001748YS02001751 CONDUIT     14.25     0  03:01      0.74    0.01    0.32
  YS02001751YS02001754 CONDUIT     23.25     0  05:14      0.69    0.01    0.53
  YS02001754YS02001757 CONDUIT     33.06     0  05:21      0.33    0.01    0.85
  YS02001882YS02001884 CONDUIT      1.15     0  02:13      0.06    0.00    0.24
  YS02001884YS02001887 CONDUIT      3.66     0  02:09      0.04    0.00    0.33
  YS02001890YS02001895 CONDUIT     24.82     0  03:02      0.12    0.01    0.31
  YS02001895YS02001898 CONDUIT     24.78     0  03:02      0.32    0.04    0.17
  YS02001898YS02001901 CONDUIT     24.88     0  03:03      0.16    0.02    0.25
  YS02001901YS02001904 CONDUIT     24.77     0  03:04      0.18    0.04    0.30
  YS02001904YS02001907 CONDUIT     24.82     0  03:04      0.07    0.01    0.46
  YS02001887YS02001890 CONDUIT     24.98     0  03:00      0.10    0.04    0.39
  YS02001652YS02001649 CONDUIT     20.74     0  03:08      0.22    0.01    0.81
  YS02001655YS02001652 CONDUIT     19.94     0  03:06      0.74    0.01    0.56
  YS02001658YS02001655 CONDUIT     17.53     0  03:01      0.83    0.01    0.30
  YS02001661YS02001658 CONDUIT     17.53     0  03:01      0.91    0.01    0.09
  YS02001664YS02001661 CONDUIT     17.54     0  03:01      0.49    0.01    0.09
  YSB1154YSB6556       CONDUIT      2.60     0  02:33      0.19    0.00    0.32
  YSB1174YSB1171       CONDUIT      2.47     0  02:24      0.02    0.00    0.43
  YSB1171HS02004479    CONDUIT      4.70     0  02:38      0.54    0.00    0.32
  HS02004881HS02006253 CONDUIT      7.47     0  02:36      0.87    0.00    0.01
  YS02001793JiankangQianchi CONDUIT     68.27     0  03:07      8.37    0.01    0.50
  YS02001757CaochengTiaoxuchi CONDUIT     89.26     0  03:13      0.30    0.04    0.65
  WSF200WS02003060     CONDUIT    124.35     0  03:15      0.90    0.03    0.18
  1                    CONDUIT    340.57     0  03:19      2.46    0.12    0.23
  2                    CONDUIT      0.00     0  00:00      0.00    0.00    0.00
  3                    CONDUIT    250.55     0  00:00      8.26    0.40    0.46
  4                    CONDUIT      0.00     0  00:00      0.00    0.00    0.00
  CC-Pump-1            PUMP         0.00     0  00:00              0.00
  CC-Pump-2            PUMP         0.00     0  00:00              0.00
  JK-Pump-1            PUMP       300.00     0  00:00              1.00
  JK-Pump-2            PUMP        68.27     0  03:07              0.23
  XR-Pump-1            PUMP        95.00     0  00:00              1.00
  XR-Pump-2            PUMP        95.00     0  00:00              1.00
  XR-Pump-3            PUMP         0.00     0  00:00              0.00
  XR-Pump-4            PUMP        95.00     0  00:30              1.00
  
  
  ***************************
  Flow Classification Summary
  ***************************
  
  -------------------------------------------------------------------------------------
                      Adjusted    ---------- Fraction of Time in Flow Class ---------- 
                       /Actual         Up    Down  Sub   Sup   Up    Down  Norm  Inlet 
  Conduit               Length    Dry  Dry   Dry   Crit  Crit  Crit  Crit  Ltd   Ctrl  
  -------------------------------------------------------------------------------------
  WS02003066WSF200        1.00   0.24  0.00  0.00  0.00  0.76  0.00  0.00  0.76  0.00
  WS02006287WS02006284    1.00   0.16  0.06  0.00  0.64  0.14  0.00  0.00  0.81  0.00
  WS02006284WS02006280    1.00   0.18  0.00  0.00  0.00  0.00  0.00  0.82  0.00  0.00
  WS02006280WS02006229    1.00   0.18  0.00  0.00  0.00  0.00  0.00  0.82  0.00  0.00
  WS02006229WS02006228    1.00   0.00  0.00  0.00  0.95  0.00  0.00  0.05  0.00  0.00
  WS02006256WS02006235    1.00   0.00  0.00  0.00  0.99  0.01  0.00  0.00  0.00  0.00
  WS02006253WS02006251    1.00   0.12  0.05  0.00  0.82  0.00  0.01  0.00  0.00  0.00
  WS02006252WS02006251    1.00   1.00  0.00  0.00  0.00  0.00  0.00  0.00  0.00  0.00
  WS02006251WS02006249    1.00   0.00  0.00  0.00  1.00  0.00  0.00  0.00  0.98  0.00
  WS02006249WS02006248    1.00   0.00  0.08  0.00  0.00  0.00  0.91  0.00  0.00  0.00
  WS02006248WS02006247    1.00   0.09  0.00  0.00  0.90  0.00  0.00  0.00  0.87  0.00
  WS02006247WS02006245    1.00   0.08  0.00  0.00  0.92  0.00  0.00  0.00  0.00  0.00
  WS02006245WS02006243    1.00   0.05  0.02  0.00  0.65  0.00  0.00  0.29  0.01  0.00
  WS02006243WS02006242    1.00   0.03  0.02  0.00  0.96  0.00  0.00  0.00  0.97  0.00
  WS02006242WS02006240    1.00   0.02  0.00  0.00  0.98  0.00  0.00  0.00  0.00  0.00
  WS02006240WS02006239    1.00   0.01  0.00  0.00  0.80  0.00  0.00  0.19  0.02  0.00
  WS02006239WS02006238    1.00   0.00  0.00  0.00  1.00  0.00  0.00  0.00  0.02  0.00
  WS02006238WS02006235    1.00   0.00  0.00  0.00  0.99  0.01  0.00  0.00  0.00  0.00
  WS02006235WS02006234    1.00   0.00  0.00  0.00  0.79  0.00  0.21  0.00  0.00  0.00
  WS02006234WS02006232    1.00   0.00  0.00  0.00  0.99  0.01  0.00  0.00  0.20  0.00
  WS02006232WS02006231    1.00   0.00  0.01  0.00  0.97  0.00  0.02  0.00  0.00  0.00
  WS02006231WS02006230    1.00   0.01  0.00  0.00  0.00  0.00  0.99  0.00  0.00  0.00
  WS02006230WS02006229    1.00   0.00  0.00  0.00  0.94  0.00  0.00  0.06  0.01  0.00
  WS02006228WS02006109    1.00   0.00  0.00  0.00  0.98  0.00  0.00  0.01  0.00  0.00
  WS02006116WS02004401    1.00   0.10  0.00  0.00  0.90  0.00  0.00  0.00  0.00  0.00
  WS02006115WS02006116    1.00   0.10  0.00  0.00  0.87  0.00  0.00  0.02  0.00  0.00
  WS02006113WS02006111    1.00   0.08  0.00  0.00  0.01  0.91  0.00  0.00  0.03  0.00
  WS02006112WS02006115    1.00   0.09  0.01  0.00  0.89  0.00  0.00  0.00  0.00  0.00
  WS02006111WS02006112    1.00   0.09  0.00  0.00  0.90  0.00  0.00  0.01  0.98  0.00
  WS02006110WS02006113    1.00   0.05  0.03  0.00  0.92  0.00  0.00  0.00  0.00  0.00
  WS02006109WS02006110    1.00   0.00  0.04  0.00  0.93  0.00  0.03  0.00  0.00  0.00
  WS02004411WS02004412    1.00   0.16  0.00  0.00  0.84  0.00  0.00  0.00  0.00  0.00
  WS02004401WS02004402    1.00   0.10  0.00  0.00  0.90  0.00  0.00  0.00  0.00  0.00
  WS02004413WS02003067    1.00   0.16  0.06  0.00  0.00  0.00  0.78  0.00  0.00  0.00
  WS02004412WS02004413    1.00   0.16  0.00  0.00  0.84  0.00  0.00  0.00  0.03  0.00
  WS02004410WS02004411    1.00   0.16  0.00  0.00  0.84  0.00  0.00  0.00  0.04  0.00
  WS02004409WS02004410    1.00   0.16  0.00  0.00  0.84  0.00  0.00  0.00  0.04  0.00
  WS02004407WS02004409    1.00   0.16  0.00  0.00  0.84  0.01  0.00  0.00  0.89  0.00
  WS02004406WS02004407    1.00   0.00  0.15  0.00  0.84  0.00  0.00  0.00  0.00  0.00
  WS02004405WS02004406    1.00   0.00  0.00  0.00  1.00  0.00  0.00  0.00  0.00  0.00
  WS02004404WS02004405    1.00   0.00  0.00  0.00  1.00  0.00  0.00  0.00  0.00  0.00
  WS02004403WS02004404    1.00   0.00  0.11  0.00  0.89  0.00  0.00  0.00  0.01  0.00
  WS02004402WS02004403    1.00   0.10  0.00  0.00  0.90  0.00  0.00  0.00  0.00  0.00
  WS02004139WS02001211    1.00   0.00  0.00  0.00  0.98  0.00  0.02  0.00  0.00  0.00
  WS02004138WS02004139    1.00   0.00  0.00  0.00  0.96  0.03  0.00  0.01  1.00  0.00
  WS02003067WS02003066    1.00   0.22  0.02  0.00  0.76  0.00  0.00  0.00  0.00  0.00
  WS02001213WS02003059    1.00   0.01  0.02  0.00  0.97  0.00  0.00  0.00  0.00  0.00
  WS02001212WS02001213    1.00   0.02  0.01  0.00  0.00  0.00  0.98  0.00  0.00  0.00
  WS02001211WS02001212    1.00   0.00  0.02  0.00  0.98  0.00  0.00  0.00  0.00  0.00
  WS02003072WS02003073    1.00   0.00  0.00  0.00  0.00  0.00  0.00  1.00  0.00  0.00
  WS02003069WS02003072    1.00   0.00  0.00  0.00  0.98  0.02  0.00  0.00  0.98  0.00
  WS02003060WS02003069    1.00   0.00  0.00  0.00  0.95  0.05  0.00  0.00  0.31  0.00
  WS02003059WS02003060    1.00   0.00  0.00  0.00  0.98  0.02  0.00  0.00  0.01  0.00
  HS02004901HS02004770    1.00   0.18  0.00  0.00  0.82  0.00  0.00  0.00  0.04  0.00
  HS02004876HS02004881    1.00   0.09  0.00  0.00  0.91  0.00  0.00  0.00  0.00  0.00
  HS02004870HS02004876    1.00   0.02  0.00  0.00  0.97  0.01  0.00  0.00  0.95  0.00
  HS02004842HS02004848    1.00   0.00  0.19  0.00  0.81  0.00  0.00  0.00  0.76  0.00
  HS02004837HS02004842    1.00   0.00  0.00  0.00  0.97  0.03  0.00  0.00  0.11  0.00
  HS02004830HS02004837    1.00   0.00  0.00  0.00  0.99  0.01  0.00  0.00  0.99  0.00
  HS02004824HS02004830    1.00   0.00  0.00  0.00  1.00  0.00  0.00  0.00  0.00  0.00
  HS02004817HS02004824    1.00   0.00  0.00  0.00  1.00  0.00  0.00  0.00  1.00  0.00
  HS02004770HS02004777    1.00   0.00  0.18  0.00  0.82  0.00  0.00  0.00  0.08  0.00
  HS02004799HS02004480    1.00   0.01  0.10  0.00  0.77  0.00  0.12  0.00  0.00  0.00
  HS02004792HS02004799    1.00   0.00  0.00  0.00  0.94  0.06  0.00  0.00  0.98  0.00
  HS02004788HS02004792    1.00   0.00  0.00  0.00  0.95  0.05  0.00  0.00  0.98  0.00
  HS02004785HS02004788    1.00   0.00  0.00  0.00  1.00  0.00  0.00  0.00  0.00  0.00
  HS02004777HS02004785    1.00   0.00  0.00  0.00  1.00  0.00  0.00  0.00  0.23  0.00
  HS02004480HS02004478    1.00   0.20  0.00  0.00  0.63  0.00  0.00  0.17  0.00  0.00
  HS02004479HS02004480    1.00   0.11  0.00  0.00  0.89  0.00  0.00  0.00  0.17  0.00
  HS02004862HS02004870    1.00   0.00  0.00  0.00  1.00  0.00  0.00  0.00  0.06  0.00
  HS02004848HS02004852    1.00   0.19  0.00  0.00  0.81  0.00  0.00  0.00  0.67  0.00
  HS02004856HS02004862    1.00   0.00  0.29  0.00  0.71  0.00  0.00  0.00  0.71  0.00
  HS02004852HS02004856    1.00   0.18  0.03  0.00  0.79  0.00  0.00  0.00  0.81  0.00
  HS02004802HS02004478    1.00   0.18  0.03  0.00  0.79  0.00  0.00  0.00  0.00  0.00
  HS02004478WS02006287    1.00   0.22  0.00  0.00  0.78  0.00  0.00  0.00  0.81  0.00
  HS02004817HS02004807    1.00   0.00  0.18  0.00  0.82  0.00  0.00  0.00  0.00  0.00
  HS02004807HS02004802    1.00   0.18  0.00  0.00  0.81  0.00  0.00  0.01  0.01  0.00
  YS02001759YS02001757    1.00   0.00  0.00  0.00  1.00  0.00  0.00  0.00  0.17  0.00
  YS02001762YS02001759    1.00   0.00  0.01  0.00  0.99  0.00  0.00  0.00  0.06  0.00
  YS02001765YS02001762    1.00   0.00  0.00  0.00  1.00  0.00  0.00  0.00  0.24  0.00
  YS02001770YS02001767    1.00   0.00  0.00  0.00  1.00  0.00  0.00  0.00  0.00  0.00
  YS02001774YS02001770    1.00   0.01  0.22  0.00  0.77  0.00  0.00  0.00  0.07  0.00
  YS02001779YS02001774    1.00   0.00  0.00  0.00  1.00  0.00  0.00  0.00  0.30  0.00
  YS02001649YS02001757    1.00   0.00  0.00  0.00  1.00  0.00  0.00  0.00  0.20  0.00
  YS02001767YS02001765    1.00   0.00  0.00  0.00  1.00  0.00  0.00  0.00  0.01  0.00
  YS02006561YS02001783    1.00   0.29  0.00  0.00  0.00  0.71  0.00  0.00  0.70  0.00
  YS02001783YS02001784    1.00   0.00  0.29  0.00  0.71  0.00  0.00  0.00  0.47  0.00
  YS02001784YS02001785    1.00   0.00  0.00  0.00  1.00  0.00  0.00  0.00  0.28  0.00
  YS02001788YS02001790    1.00   0.00  0.00  0.00  0.31  0.69  0.00  0.00  1.00  0.00
  YS02001790YS02001791    1.00   0.00  0.00  0.00  0.07  0.93  0.00  0.00  0.00  0.00
  YS02001791YS02001793    1.00   0.00  0.00  0.00  0.00  1.00  0.00  0.00  0.00  0.00
  YS02001910YS02001907    1.00   0.00  0.00  0.00  0.89  0.00  0.00  0.10  0.13  0.00
  YS02001786YS02001788    1.00   0.00  0.00  0.00  0.65  0.35  0.00  0.00  0.00  0.00
  YS02001915YS02001910    1.00   0.00  0.00  0.00  0.96  0.04  0.00  0.00  0.26  0.00
  YS02001918YS02001915    1.00   0.00  0.03  0.00  0.92  0.06  0.00  0.00  0.79  0.00
  YS02001923YS02001920    1.00   0.00  0.00  0.00  1.00  0.00  0.00  0.00  1.00  0.00
  YS02001926YS02001923    1.00   0.00  0.14  0.00  0.00  0.00  0.86  0.00  0.00  0.00
  YS02001929YS02001926    1.00   0.00  0.18  0.00  0.82  0.00  0.00  0.00  0.86  0.00
  YS02001920YS02001918    1.00   0.00  0.02  0.00  0.98  0.00  0.00  0.00  0.00  0.00
  YS02001629YS02163301    1.00   0.26  0.02  0.00  0.73  0.00  0.00  0.00  0.00  0.00
  YS02001619YS02001622    1.00   0.18  0.00  0.00  0.82  0.00  0.00  0.00  0.00  0.00
  YS02001622YS02001625    1.00   0.18  0.00  0.00  0.82  0.00  0.00  0.00  0.16  0.00
  YS02001625YS02001629    1.00   0.19  0.13  0.00  0.60  0.00  0.08  0.00  0.00  0.00
  YS02163301YS02001633    1.00   0.00  0.26  0.00  0.74  0.00  0.00  0.00  0.00  0.00
  YS02163601YS02164001    1.00   0.00  0.14  0.00  0.86  0.00  0.00  0.00  0.00  0.00
  YS02164001YS02001641    1.00   0.04  0.11  0.00  0.86  0.00  0.00  0.00  0.07  0.00
  YS02001641YS02001644    1.00   0.00  0.03  0.00  0.97  0.00  0.00  0.00  0.00  0.00
  YS02001647YS02001649    1.00   0.00  0.29  0.00  0.71  0.00  0.00  0.00  0.01  0.00
  YS02006553YS02006556    1.00   0.06  0.00  0.00  0.94  0.00  0.00  0.00  0.03  0.00
  YS02006556YS02006558    1.00   0.00  0.01  0.00  0.99  0.00  0.00  0.00  0.00  0.00
  YSB6556YSB1171          1.00   0.11  0.06  0.00  0.83  0.00  0.00  0.00  0.00  0.00
  YS02001907YS02006553    1.00   0.01  0.09  0.00  0.90  0.00  0.00  0.00  0.00  0.00
  YS02006558YS02006561    1.00   0.29  0.00  0.00  0.00  0.71  0.00  0.00  0.57  0.00
  YS02001633YS02163601    1.00   0.00  0.03  0.00  0.97  0.00  0.00  0.00  0.21  0.00
  YS02001644YS02001647    1.00   0.00  0.29  0.00  0.71  0.00  0.00  0.00  0.00  0.00
  YS02001745YS02001748    1.00   0.00  0.00  0.00  0.23  0.03  0.00  0.74  0.29  0.00
  YS02001748YS02001751    1.00   0.00  0.00  0.00  0.87  0.13  0.00  0.00  0.43  0.00
  YS02001751YS02001754    1.00   0.00  0.00  0.00  0.67  0.00  0.00  0.33  0.05  0.00
  YS02001754YS02001757    1.00   0.00  0.00  0.00  0.97  0.03  0.00  0.00  0.30  0.00
  YS02001882YS02001884    1.00   0.24  0.02  0.00  0.74  0.00  0.00  0.00  0.00  0.00
  YS02001884YS02001887    1.00   0.13  0.04  0.00  0.83  0.00  0.00  0.00  0.00  0.00
  YS02001890YS02001895    1.00   0.01  0.26  0.00  0.73  0.00  0.00  0.00  0.00  0.00
  YS02001895YS02001898    1.00   0.27  0.00  0.00  0.70  0.00  0.03  0.00  0.00  0.00
  YS02001898YS02001901    1.00   0.25  0.02  0.00  0.73  0.00  0.00  0.00  0.02  0.00
  YS02001901YS02001904    1.00   0.25  0.00  0.00  0.75  0.00  0.00  0.00  0.00  0.00
  YS02001904YS02001907    1.00   0.01  0.24  0.00  0.75  0.00  0.00  0.00  0.00  0.00
  YS02001887YS02001890    1.00   0.00  0.01  0.00  0.89  0.00  0.10  0.00  0.00  0.00
  YS02001652YS02001649    1.00   0.00  0.00  0.00  1.00  0.00  0.00  0.00  0.29  0.00
  YS02001655YS02001652    1.00   0.00  0.00  0.00  0.68  0.00  0.00  0.32  0.05  0.00
  YS02001658YS02001655    1.00   0.00  0.23  0.00  0.64  0.13  0.00  0.00  0.47  0.00
  YS02001661YS02001658    1.00   0.23  0.00  0.00  0.26  0.50  0.00  0.00  0.73  0.00
  YS02001664YS02001661    1.00   0.18  0.00  0.00  0.82  0.00  0.00  0.00  0.86  0.00
  YSB1154YSB6556          1.00   0.17  0.00  0.00  0.83  0.00  0.00  0.00  0.02  0.00
  YSB1174YSB1171          1.00   0.12  0.03  0.00  0.85  0.00  0.00  0.00  0.00  0.00
  YSB1171HS02004479       1.00   0.11  0.00  0.00  0.88  0.00  0.00  0.01  0.14  0.00
  HS02004881HS02006253    1.00   0.12  0.00  0.00  0.00  0.00  0.00  0.88  0.00  0.00
  YS02001793JiankangQianchi    1.00   0.00  0.01  0.00  0.09  0.90  0.00  0.00  0.02  0.00
  YS02001757CaochengTiaoxuchi    1.00   0.00  0.40  0.00  0.60  0.00  0.00  0.00  0.00  0.00
  WSF200WS02003060        1.00   0.00  0.24  0.00  0.76  0.00  0.00  0.00  0.77  0.00
  1                       1.00   0.00  0.00  0.00  0.00  1.00  0.00  0.00  0.03  0.00
  2                       1.00   1.00  0.00  0.00  0.00  0.00  0.00  0.00  0.00  0.00
  3                       1.00   0.90  0.00  0.00  0.00  0.10  0.00  0.00  0.98  0.00
  4                       1.00   1.00  0.00  0.00  0.00  0.00  0.00  0.00  0.00  0.00
  
  
  *************************
  Conduit Surcharge Summary
  *************************
  
  ----------------------------------------------------------------------------
                                                           Hours        Hours 
                         --------- Hours Full --------   Above Full   Capacity
  Conduit                Both Ends  Upstream  Dnstream   Normal Flow   Limited
  ----------------------------------------------------------------------------
  WS02006256WS02006235        0.12      0.12      6.16      0.16         0.01
  WS02006235WS02006234        0.01      0.01      0.01      0.13         0.01
  WS02006231WS02006230        0.01      0.01      0.01      0.88         0.01
  WS02006230WS02006229        0.01      0.01      0.01      3.52         0.01
  WS02004404WS02004405        0.01      0.01      0.01      0.92         0.01
  YS02001759YS02001757        0.01      0.01      0.92      0.01         0.01
  YS02001649YS02001757        0.01      0.01      0.92      0.01         0.01
  YS02001754YS02001757        0.01      0.01      0.92      0.01         0.01
  YS02001793JiankangQianchi        0.01      0.01      0.09      0.01         0.01
  YS02001757CaochengTiaoxuchi        0.01      0.01      0.92      0.01         0.01
  
  
  ***************
  Pumping Summary
  ***************
  
  ---------------------------------------------------------------------------------------------------------
                                                  Min       Avg       Max     Total     Power    % Time Off
                        Percent   Number of      Flow      Flow      Flow    Volume     Usage    Pump Curve
  Pump                 Utilized   Start-Ups       LPS       LPS       LPS  10^6 ltr     Kw-hr    Low   High
  ---------------------------------------------------------------------------------------------------------
  CC-Pump-1                0.00           0      0.00      0.00      0.00     0.000      0.00    0.0    0.0
  CC-Pump-2                0.00           0      0.00      0.00      0.00     0.000      0.00    0.0    0.0
  JK-Pump-1                6.40           1      0.00    223.80    300.00     0.180      2.81    0.0    0.0
  JK-Pump-2               95.73           1      0.00     33.32     68.27     0.815     14.76    0.0    0.0
  XR-Pump-1                6.40           1      0.00     89.60     95.00     0.143      1.68    0.0    0.0
  XR-Pump-2              100.00           1      0.00     95.00     95.00     2.679     19.08    0.0    0.0
  XR-Pump-3                0.00           0      0.00      0.00      0.00     0.000      0.00    0.0    0.0
  XR-Pump-4               95.73           1      0.00     94.22     95.00     2.536     17.40    0.0    0.0
  

  Analysis begun on:  Thu Jan  6 00:44:39 2022
  Analysis ended on:  Thu Jan  6 00:44:40 2022
  Total elapsed time: 00:00:01