
  EPA STORM WATER MANAGEMENT MODEL - VERSION 5.1 (Build 5.3.0.dev0)
  --------------------------------------------------------------

  WARNING 04: minimum elevation drop used for Conduit WS02004404WS02004405
  WARNING 03: negative offset ignored for Link YS02001904YS02001907
  
  *********************************************************
  NOTE: The summary statistics displayed in this report are
  based on results found at every computational time step,  
  not just on results from each reporting time step.
  *********************************************************
  
  ****************
  Analysis Options
  ****************
  Flow Units ............... LPS
  Process Models:
    Rainfall/Runoff ........ YES
    RDII ................... NO
    Snowmelt ............... NO
    Groundwater ............ NO
    Flow Routing ........... YES
    Ponding Allowed ........ NO
    Water Quality .......... NO
  Infiltration Method ...... HORTON
  Flow Routing Method ...... DYNWAVE
  Surcharge Method ......... EXTRAN
  Starting Date ............ 08/28/2015 08:00:00
  Ending Date .............. 08/28/2015 15:50:00
  Antecedent Dry Days ...... 8.0
  Report Time Step ......... 00:01:00
  Wet Time Step ............ 00:01:00
  Dry Time Step ............ 00:01:00
  Routing Time Step ........ 5.00 sec
  Variable Time Step ....... YES
  Maximum Trials ........... 8
  Number of Threads ........ 4
  Head Tolerance ........... 0.001500 m
  
  
  **************************        Volume         Depth
  Runoff Quantity Continuity     hectare-m            mm
  **************************     ---------       -------
  Total Precipitation ......         2.663         5.830
  Evaporation Loss .........         0.000         0.000
  Infiltration Loss ........         0.668         1.463
  Surface Runoff ...........         1.113         2.436
  Final Storage ............         0.882         1.932
  Continuity Error (%) .....        -0.018
  
  
  **************************        Volume        Volume
  Flow Routing Continuity        hectare-m      10^6 ltr
  **************************     ---------     ---------
  Dry Weather Inflow .......         0.616         6.165
  Wet Weather Inflow .......         1.112        11.120
  Groundwater Inflow .......         0.000         0.000
  RDII Inflow ..............         0.000         0.000
  External Inflow ..........         0.102         1.024
  External Outflow .........         1.035        10.352
  Flooding Loss ............         0.251         2.506
  Evaporation Loss .........         0.000         0.000
  Exfiltration Loss ........         0.000         0.000
  Initial Stored Volume ....         0.076         0.761
  Final Stored Volume ......         0.623         6.225
  Continuity Error (%) .....        -0.075
  
  
  *************************
  Highest Continuity Errors
  *************************
  Node HS02004842 (28.71%)
  Node YS02001774 (27.03%)
  Node YS02001884 (23.11%)
  Node YSB1171 (7.07%)
  Node YS02001625 (5.91%)
  
  
  ***************************
  Time-Step Critical Elements
  ***************************
  Link 3 (67.87%)
  Link YS02001793JiankangQianchi (20.63%)
  Link WS02006280WS02006229 (4.01%)
  
  
  ********************************
  Highest Flow Instability Indexes
  ********************************
  Link WS02006113WS02006111 (59)
  Link WS02006111WS02006112 (27)
  Link YS02001779YS02001774 (16)
  Link YS02001774YS02001770 (15)
  Link YS02001765YS02001762 (13)
  
  
  *************************
  Routing Time Step Summary
  *************************
  Minimum Time Step           :     0.51 sec
  Average Time Step           :     1.64 sec
  Maximum Time Step           :     5.00 sec
  Percent in Steady State     :     0.00
  Average Iterations per Step :     3.35
  Percent Not Converging      :    14.60
  
  
  ***************************
  Subcatchment Runoff Summary
  ***************************
  
  ------------------------------------------------------------------------------------------------------------------------------
                            Total      Total      Total      Total     Imperv       Perv      Total       Total     Peak  Runoff
                           Precip      Runon       Evap      Infil     Runoff     Runoff     Runoff      Runoff   Runoff   Coeff
  Subcatchment                 mm         mm         mm         mm         mm         mm         mm    10^6 ltr      LPS
  ------------------------------------------------------------------------------------------------------------------------------
  sub0                       5.83       0.00       0.00       0.41       4.16       0.00       4.16        0.00     1.37   0.713
  sub1                       5.83       0.00       0.00       0.64       3.93       0.00       3.93        0.03     7.19   0.675
  sub2                       5.83       0.00       0.00       2.16       2.77       0.00       2.77        0.03     6.37   0.475
  sub3                       5.83       0.00       0.00       2.16       2.73       0.00       2.73        0.06    13.12   0.469
  sub4                       5.83       0.00       0.00       0.64       3.80       0.00       3.80        0.08    14.74   0.651
  sub5                       5.83       0.00       0.00       0.41       4.11       0.00       4.11        0.05    12.79   0.705
  sub7                       5.83       0.00       0.00       0.52       4.05       0.00       4.05        0.01     4.51   0.695
  sub8                       5.83       0.00       0.00       0.52       4.04       0.00       4.04        0.03     7.96   0.693
  sub9                       5.83       0.00       0.00       0.52       4.04       0.00       4.04        0.02     5.90   0.693
  sub10                      5.83       0.00       0.00       0.47       4.07       0.00       4.07        0.04    12.76   0.699
  sub11                      5.83       0.00       0.00       0.47       4.09       0.00       4.09        0.05    14.97   0.701
  sub12                      5.83       0.00       0.00       0.76       3.88       0.00       3.88        0.03    12.68   0.666
  sub14                      5.83       0.00       0.00       0.52       4.04       0.00       4.04        0.04    11.53   0.693
  sub15                      5.83       0.00       0.00       1.75       3.10       0.00       3.10        0.05    15.64   0.532
  sub16                      5.83       0.00       0.00       1.92       2.99       0.00       2.99        0.03    11.14   0.512
  sub17                      5.83       0.00       0.00       1.87       3.03       0.00       3.03        0.03     9.00   0.520
  sub22                      5.83       0.00       0.00       2.51       2.53       0.00       2.53        0.16    51.19   0.435
  sub23                      5.83       0.00       0.00       2.16       2.80       0.00       2.80        0.13    43.62   0.481
  sub60                      5.83       0.00       0.00       0.70       2.71       0.00       2.71        0.82    76.21   0.465
  sub61                      5.83       0.00       0.00       0.99       2.90       0.00       2.90        0.90    95.28   0.498
  sub62                      5.83       0.00       0.00       0.47       3.11       0.00       3.11        0.96    97.52   0.534
  sub63                      5.83       0.00       0.00       1.69       2.59       0.00       2.59        0.78    88.77   0.444
  sub64                      5.83       0.00       0.00       0.87       2.59       0.00       2.59        0.79    72.36   0.444
  sub65                      5.83       0.00       0.00       0.76       2.62       0.00       2.62        0.81    73.39   0.450
  sub66                      5.83       0.00       0.00       1.69       2.26       0.00       2.26        0.69    66.37   0.388
  sub67                      5.83       0.00       0.00       0.47       3.43       0.00       3.43        1.06   124.64   0.588
  sub68                      5.83       0.00       0.00       0.82       3.09       0.00       3.09        0.95   105.22   0.530
  sub69                      5.83       0.00       0.00       0.87       3.34       0.00       3.34        0.78   104.02   0.573
  sub70                      5.83       3.41       0.00       3.14       4.09       0.00       4.09        0.94    84.08   0.442
  sub71                      5.83       0.00       0.00       0.47       2.97       0.00       2.97        0.70    68.20   0.510
  sub72                      5.83       0.00       0.00       0.41       2.09       0.00       2.09        0.43    31.96   0.358
  sub73                      5.83       3.98       0.00       3.33       4.15       0.00       4.15        0.97    72.10   0.423
  sub74                      5.83       0.00       0.00       4.37       1.01       0.00       1.01        0.40    57.95   0.173
  
  
  ******************
  Node Depth Summary
  ******************
  
  ---------------------------------------------------------------------------------
                                 Average  Maximum  Maximum  Time of Max    Reported
                                   Depth    Depth      HGL   Occurrence   Max Depth
  Node                 Type       Meters   Meters   Meters  days hr:min      Meters
  ---------------------------------------------------------------------------------
  WS02001211           JUNCTION     0.60     0.62     5.46     0  02:42        0.62
  WS02001212           JUNCTION     0.33     0.35     5.42     0  02:41        0.35
  WS02001213           JUNCTION     0.53     0.60     5.36     0  02:40        0.60
  WS02003069           JUNCTION     0.34     0.44     5.02     0  02:39        0.44
  WS02003072           JUNCTION     0.41     0.51     4.88     0  02:40        0.51
  WS02003073           JUNCTION     0.24     0.30     4.37     0  02:41        0.30
  WS02003060           JUNCTION     0.31     0.39     5.32     0  02:38        0.39
  WS02003066           JUNCTION     0.18     0.25     5.81     0  02:36        0.25
  WS02003059           JUNCTION     0.59     0.66     5.35     0  02:40        0.66
  WS02003067           JUNCTION     0.46     0.62     5.94     0  02:36        0.62
  WS02004401           JUNCTION     0.53     0.71     6.71     0  02:32        0.71
  WS02004402           JUNCTION     0.56     0.75     6.71     0  02:32        0.75
  WS02004403           JUNCTION     0.59     0.77     6.70     0  02:32        0.77
  WS02004404           JUNCTION     0.66     0.84     6.69     0  02:32        0.84
  WS02004406           JUNCTION     0.67     0.85     6.68     0  02:32        0.85
  WS02004409           JUNCTION     0.34     0.53     6.30     0  02:35        0.53
  WS02004410           JUNCTION     0.37     0.55     6.27     0  02:35        0.55
  WS02004411           JUNCTION     0.39     0.57     6.25     0  02:36        0.57
  WS02004412           JUNCTION     0.41     0.59     6.23     0  02:36        0.59
  WS02004413           JUNCTION     0.56     0.75     6.22     0  02:36        0.75
  WS02004405           JUNCTION     0.66     0.84     6.69     0  02:32        0.84
  WS02006109           JUNCTION     0.58     0.79     7.41     0  02:26        0.79
  WS02006110           JUNCTION     0.60     0.78     7.37     0  02:26        0.78
  WS02006111           JUNCTION     0.16     0.23     6.94     0  02:27        0.23
  WS02006112           JUNCTION     0.67     0.89     6.77     0  02:31        0.89
  WS02006113           JUNCTION     0.24     0.36     7.26     0  02:27        0.36
  WS02006115           JUNCTION     0.41     0.60     6.74     0  02:31        0.60
  WS02006116           JUNCTION     0.50     0.69     6.73     0  02:32        0.69
  WS02006230           JUNCTION     0.50     0.72     7.47     0  02:26        0.72
  WS02006231           JUNCTION     0.30     0.40     7.52     0  02:29        0.40
  WS02006232           JUNCTION     0.42     0.52     7.55     0  02:30        0.52
  WS02006234           JUNCTION     0.31     0.41     7.57     0  02:30        0.41
  WS02006235           JUNCTION     0.34     0.43     7.60     0  02:31        0.43
  WS02006238           JUNCTION     0.36     0.45     7.60     0  02:31        0.45
  WS02006240           JUNCTION     0.22     0.31     7.60     0  02:31        0.31
  WS02006242           JUNCTION     0.24     0.33     7.60     0  02:30        0.33
  WS02006243           JUNCTION     0.10     0.19     7.61     0  02:30        0.19
  WS02006245           JUNCTION     0.07     0.16     7.65     0  02:23        0.16
  WS02006247           JUNCTION     0.08     0.19     7.69     0  02:22        0.19
  WS02006248           JUNCTION     0.06     0.14     7.73     0  02:20        0.14
  WS02006249           JUNCTION     0.09     0.19     7.79     0  02:20        0.19
  WS02006239           JUNCTION     0.29     0.39     7.60     0  02:31        0.39
  WS02006251           JUNCTION     0.06     0.16     7.83     0  02:19        0.16
  WS02006252           JUNCTION     0.00     0.00     8.24     0  00:00        0.00
  WS02006253           JUNCTION     0.10     0.22     7.87     0  02:19        0.22
  WS02006256           JUNCTION     0.93     1.15     8.09     0  00:00        1.11
  WS02004138           JUNCTION     0.14     0.14     7.39     0  00:00        0.14
  WS02004407           JUNCTION     0.16     0.24     6.55     0  02:33        0.24
  WS02006228           JUNCTION     0.56     0.78     7.44     0  02:26        0.78
  WS02006229           JUNCTION     0.53     0.76     7.45     0  02:26        0.76
  WS02006280           JUNCTION     0.06     0.14     8.41     0  02:19        0.14
  WS02006284           JUNCTION     0.35     0.48     8.88     0  02:19        0.48
  WS02006287           JUNCTION     0.09     0.21     9.16     0  02:19        0.21
  WSF200               JUNCTION     0.15     0.25     5.48     0  02:37        0.25
  HS02004901           JUNCTION     0.12     0.23    10.05     0  02:16        0.23
  HS02004881           JUNCTION     0.01     0.02     9.05     0  02:18        0.02
  HS02004876           JUNCTION     0.04     0.10     9.13     0  02:17        0.10
  HS02004870           JUNCTION     0.01     0.04     9.33     0  02:19        0.04
  HS02004862           JUNCTION     0.02     0.05     9.43     0  02:20        0.05
  HS02004856           JUNCTION     0.07     0.10     9.53     0  02:19        0.10
  HS02004852           JUNCTION     0.01     0.03     9.54     0  02:20        0.03
  HS02004848           JUNCTION     0.01     0.03     9.63     0  02:19        0.03
  HS02004842           JUNCTION     0.32     0.36     9.63     0  02:18        0.36
  HS02004837           JUNCTION     0.03     0.05     9.63     0  02:18        0.05
  HS02004830           JUNCTION     0.04     0.06     9.53     0  02:19        0.06
  HS02004824           JUNCTION     0.02     0.04     9.44     0  02:22        0.04
  HS02004817           JUNCTION     0.42     0.52     9.37     0  02:19        0.52
  HS02004807           JUNCTION     0.12     0.20     9.37     0  02:19        0.20
  HS02004802           JUNCTION     0.15     0.23     9.36     0  02:19        0.23
  HS02004799           JUNCTION     0.11     0.25     9.46     0  02:17        0.25
  HS02004792           JUNCTION     0.03     0.10     9.62     0  02:16        0.10
  HS02004788           JUNCTION     0.02     0.07     9.97     0  02:17        0.07
  HS02004785           JUNCTION     0.04     0.13    10.03     0  02:17        0.13
  HS02004777           JUNCTION     0.14     0.25    10.05     0  02:16        0.25
  HS02004770           JUNCTION     0.11     0.22    10.05     0  02:16        0.22
  HS02004480           JUNCTION     0.08     0.20     9.44     0  02:17        0.20
  HS02004479           JUNCTION     0.11     0.23     9.44     0  02:17        0.23
  HS02004478           JUNCTION     0.06     0.12     9.35     0  02:18        0.12
  YS02001745           JUNCTION     0.34     0.85     8.37     0  05:28        0.85
  YS02001748           JUNCTION     0.65     1.29     8.37     0  05:28        1.29
  YS02001751           JUNCTION     0.82     1.56     8.44     0  03:42        1.49
  YS02001754           JUNCTION     1.05     1.76     8.36     0  05:31        1.76
  YS02001762           JUNCTION     1.24     1.96     8.36     0  05:31        1.96
  YS02001765           JUNCTION     1.19     1.92     8.37     0  05:31        1.92
  YS02001767           JUNCTION     1.16     1.88     8.37     0  05:28        1.88
  YS02001770           JUNCTION     1.15     1.87     8.37     0  05:28        1.87
  YS02001774           JUNCTION     1.22     1.94     8.37     0  05:28        1.94
  YS02001779           JUNCTION     0.98     1.68     8.37     0  05:28        1.68
  YS02001882           JUNCTION     0.30     0.46     7.17     0  02:52        0.46
  YS02001884           JUNCTION     0.39     0.55     7.17     0  02:52        0.55
  YS02001759           JUNCTION     1.27     2.00     8.36     0  05:31        2.00
  YS02001887           JUNCTION     0.47     0.63     7.17     0  02:52        0.63
  YS02001890           JUNCTION     0.49     0.66     7.17     0  02:53        0.66
  YS02001898           JUNCTION     0.27     0.42     7.15     0  02:52        0.42
  YS02001901           JUNCTION     0.38     0.54     7.15     0  02:52        0.54
  YS02001904           JUNCTION     0.36     0.52     7.15     0  02:52        0.52
  YS02001907           JUNCTION     0.68     0.86     7.15     0  02:54        0.86
  YS02001910           JUNCTION     0.48     0.64     7.15     0  02:51        0.64
  YS02001915           JUNCTION     0.29     0.43     7.15     0  02:51        0.43
  YS02001918           JUNCTION     0.08     0.10     7.16     0  03:03        0.10
  YS02001619           JUNCTION     0.79     1.46     8.39     0  05:20        1.44
  YS02001629           JUNCTION     1.11     1.84     8.39     0  05:20        1.82
  YS02001641           JUNCTION     1.21     1.92     8.36     0  05:20        1.92
  YS02001644           JUNCTION     1.21     1.92     8.35     0  05:19        1.92
  YS02001652           JUNCTION     1.06     1.76     8.36     0  05:37        1.76
  YS02001655           JUNCTION     0.85     1.51     8.36     0  05:34        1.51
  YS02001920           JUNCTION     0.17     0.20     7.21     0  03:02        0.20
  YS02001923           JUNCTION     0.06     0.08     7.34     0  03:02        0.08
  YS02001926           JUNCTION     0.14     0.17     7.62     0  03:01        0.17
  YS02001929           JUNCTION     0.06     0.09     7.78     0  03:01        0.09
  YS02001658           JUNCTION     0.60     1.22     8.36     0  05:34        1.22
  YS02001661           JUNCTION     0.43     0.96     8.36     0  05:34        0.96
  YS02001664           JUNCTION     0.17     0.44     8.36     0  05:34        0.44
  YS02001622           JUNCTION     0.80     1.49     8.39     0  05:20        1.47
  YS02001633           JUNCTION     1.19     1.92     8.38     0  05:20        1.91
  YS02001649           JUNCTION     1.24     1.97     8.36     0  05:37        1.97
  YS02001757           JUNCTION     1.36     2.10     8.36     0  05:37        2.10
  YS02001895           JUNCTION     0.27     0.41     7.16     0  02:53        0.41
  YS02001625           JUNCTION     1.07     1.78     8.38     0  05:20        1.77
  YS02163301           JUNCTION     1.14     1.87     8.38     0  05:20        1.85
  YS02163601           JUNCTION     1.25     1.97     8.37     0  05:20        1.96
  YS02164001           JUNCTION     1.19     1.91     8.37     0  05:20        1.90
  YS02001647           JUNCTION     1.05     1.75     8.36     0  05:37        1.75
  YSB1154              JUNCTION     0.24     0.38     9.44     0  02:17        0.38
  YSB6556              JUNCTION     0.14     0.27     9.44     0  02:17        0.27
  YSB1174              JUNCTION     0.20     0.33     9.44     0  02:17        0.33
  YSB1171              JUNCTION     0.39     0.53     9.44     0  02:17        0.53
  YS02006553           JUNCTION     0.68     0.87     7.15     0  02:54        0.87
  YS02006561           JUNCTION     0.15     0.22     6.88     0  02:55        0.22
  YS02006556           JUNCTION     0.66     0.84     7.15     0  02:55        0.84
  YS02006558           JUNCTION     0.70     0.88     7.15     0  02:55        0.88
  YS02001783           JUNCTION     0.26     0.40     6.54     0  02:55        0.40
  YS02001784           JUNCTION     0.29     0.43     6.50     0  02:54        0.43
  YS02001786           JUNCTION     0.25     0.36     6.39     0  02:55        0.36
  YS02001788           JUNCTION     0.18     0.27     6.25     0  02:56        0.27
  YS02001790           JUNCTION     0.22     0.33     5.98     0  02:56        0.33
  YS02001791           JUNCTION     0.14     0.22     5.69     0  02:56        0.22
  YS02001793           JUNCTION     0.09     0.14     4.97     0  02:36        0.14
  WS02004139           JUNCTION     0.55     0.56     5.47     0  02:43        0.56
  WSC                  OUTFALL      0.24     0.30     0.97     0  02:41        0.30
  3                    OUTFALL      0.06     0.13     6.13     0  00:00        0.11
  4                    OUTFALL      0.00     0.00     7.00     0  00:00        0.00
  5                    OUTFALL      0.00     0.00     5.00     0  00:00        0.00
  JK-storage           STORAGE      0.22     3.00     3.80     0  00:00        2.70
  CC-storage           STORAGE      0.66     1.37     8.37     0  05:34        1.37
  XR-storage           STORAGE      7.28     7.72     5.72     0  02:41        7.72
  
  
  *******************
  Node Inflow Summary
  *******************
  
  -------------------------------------------------------------------------------------------------
                                  Maximum  Maximum                  Lateral       Total        Flow
                                  Lateral    Total  Time of Max      Inflow      Inflow     Balance
                                   Inflow   Inflow   Occurrence      Volume      Volume       Error
  Node                 Type           LPS      LPS  days hr:min    10^6 ltr    10^6 ltr     Percent
  -------------------------------------------------------------------------------------------------
  WS02001211           JUNCTION      7.35   197.98     0  02:55       0.207        5.54       0.549
  WS02001212           JUNCTION      0.00   198.35     0  02:54           0        5.51       0.287
  WS02001213           JUNCTION      0.00   198.68     0  02:54           0        5.49       0.326
  WS02003069           JUNCTION      0.32   570.05     0  02:39     0.00902        9.31       0.192
  WS02003072           JUNCTION      0.00   570.02     0  02:39           0        9.29       0.258
  WS02003073           JUNCTION      1.82   571.84     0  02:40      0.0514        9.32       0.270
  WS02003060           JUNCTION     16.53   569.72     0  02:38       0.466        9.32       0.183
  WS02003066           JUNCTION      0.00   358.71     0  02:36           0        3.41       0.068
  WS02003059           JUNCTION      0.00   199.45     0  02:53           0        5.48       0.559
  WS02003067           JUNCTION      0.00   358.70     0  02:36           0        3.42       0.167
  WS02004401           JUNCTION      0.00   363.39     0  02:30           0        3.56       0.380
  WS02004402           JUNCTION      0.00   362.67     0  02:30           0        3.55       0.377
  WS02004403           JUNCTION      0.00   362.27     0  02:31           0        3.53       0.358
  WS02004404           JUNCTION      0.16   362.18     0  02:31     0.00457        3.52       0.288
  WS02004406           JUNCTION      0.00   362.05     0  02:32           0         3.5       0.710
  WS02004409           JUNCTION      0.00   361.97     0  02:33           0        3.47       0.194
  WS02004410           JUNCTION      0.00   360.70     0  02:33           0        3.47       0.245
  WS02004411           JUNCTION      0.00   359.74     0  02:34           0        3.46       0.276
  WS02004412           JUNCTION      0.00   359.16     0  02:35           0        3.45       0.332
  WS02004413           JUNCTION      0.00   358.82     0  02:35           0        3.44       0.540
  WS02004405           JUNCTION      0.04   362.12     0  02:32     0.00107        3.52       0.431
  WS02006109           JUNCTION      1.23   362.75     0  02:26      0.0347        3.61       0.403
  WS02006110           JUNCTION      0.00   362.73     0  02:26           0        3.59       0.331
  WS02006111           JUNCTION      0.00   369.32     0  02:27           0        3.58       0.056
  WS02006112           JUNCTION      9.00   369.36     0  02:27       0.026         3.6       0.565
  WS02006113           JUNCTION      0.00   362.69     0  02:26           0        3.58       0.110
  WS02006115           JUNCTION      0.00   366.77     0  02:28           0        3.58       0.283
  WS02006116           JUNCTION      0.00   364.52     0  02:29           0        3.57       0.290
  WS02006230           JUNCTION     10.28   179.88     0  02:36        0.29         2.7       0.358
  WS02006231           JUNCTION      0.00   168.88     0  02:36           0        2.41       0.060
  WS02006232           JUNCTION      0.00   168.38     0  02:35           0        2.42       0.380
  WS02006234           JUNCTION      0.00   167.94     0  02:35           0        2.42       0.038
  WS02006235           JUNCTION      0.00   167.76     0  02:34           0        2.46       0.260
  WS02006238           JUNCTION      0.00    88.92     0  00:00           0       0.188       1.432
  WS02006240           JUNCTION      0.00    40.17     0  00:02           0       0.165       1.198
  WS02006242           JUNCTION      0.00    38.02     0  02:23           0       0.157       1.469
  WS02006243           JUNCTION      0.00    39.73     0  02:22           0        0.15      -0.518
  WS02006245           JUNCTION      0.00    39.77     0  02:20           0       0.149       0.728
  WS02006247           JUNCTION      0.00    39.84     0  02:20           0       0.148       0.076
  WS02006248           JUNCTION      0.00    39.85     0  02:20           0       0.148       0.018
  WS02006249           JUNCTION      0.00    39.90     0  02:19           0       0.149       0.243
  WS02006239           JUNCTION      0.00    71.07     0  00:01           0       0.175       1.681
  WS02006251           JUNCTION      0.08    39.97     0  02:18     0.00217       0.149       0.053
  WS02006252           JUNCTION      0.00     0.00     0  00:00           0           0       0.000 ltr
  WS02006253           JUNCTION      1.37    39.91     0  02:18     0.00336       0.147       0.100
  WS02006256           JUNCTION      0.00   300.00     0  00:00           0        3.35       0.069
  WS02004138           JUNCTION      0.00   190.00     0  00:10           0        5.36       0.074
  WS02004407           JUNCTION      0.00   362.00     0  02:32           0        3.48       0.093
  WS02006228           JUNCTION      0.00   361.49     0  02:26           0        3.58       0.248
  WS02006229           JUNCTION      0.00   361.49     0  02:26           0        3.59       0.241
  WS02006280           JUNCTION      0.00   205.17     0  02:19           0       0.897       0.008
  WS02006284           JUNCTION      0.10   205.17     0  02:19      0.0027       0.898       0.119
  WS02006287           JUNCTION      0.00   205.06     0  02:19           0       0.896       0.081
  WSF200               JUNCTION      0.00   358.71     0  02:36           0        3.41       0.052
  HS02004901           JUNCTION     11.14    11.14     0  02:11      0.0313      0.0314       5.928
  HS02004881           JUNCTION      4.51    38.86     0  02:18      0.0136       0.143       0.043
  HS02004876           JUNCTION      7.19    34.66     0  02:18      0.0261        0.13       0.407
  HS02004870           JUNCTION      7.96    27.60     0  02:18      0.0258       0.104       0.102
  HS02004862           JUNCTION      6.57    20.16     0  02:19      0.0314      0.0786       0.216
  HS02004856           JUNCTION      5.90    13.64     0  02:18      0.0194      0.0486       3.046
  HS02004852           JUNCTION      0.00     8.10     0  02:19           0      0.0292       0.174
  HS02004848           JUNCTION     13.12    13.12     0  02:22      0.0615      0.0615       0.071
  HS02004842           JUNCTION      0.00     5.46     0  02:31           0      0.0453      40.264
  HS02004837           JUNCTION     19.11    23.75     0  02:18       0.224       0.256       0.318
  HS02004830           JUNCTION      0.15    23.88     0  02:18     0.00423       0.247       0.502
  HS02004824           JUNCTION     14.79    38.49     0  02:22      0.0805       0.326       0.165
  HS02004817           JUNCTION      0.60    39.08     0  02:22      0.0169       0.342       5.117
  HS02004807           JUNCTION     14.97    52.72     0  02:20      0.0475       0.373       1.146
  HS02004802           JUNCTION      0.00    53.00     0  02:22           0       0.369       1.114
  HS02004799           JUNCTION     11.53   129.88     0  02:16      0.0384       0.465       0.490
  HS02004792           JUNCTION     51.47   118.58     0  02:16       0.168       0.427       0.096
  HS02004788           JUNCTION     17.31    69.08     0  02:17         0.1       0.261       0.151
  HS02004785           JUNCTION      0.15    52.12     0  02:16     0.00423       0.162       0.299
  HS02004777           JUNCTION      0.03    52.40     0  02:15    0.000846       0.162       3.291
  HS02004770           JUNCTION     43.62    53.57     0  02:13       0.134       0.163       1.934
  HS02004480           JUNCTION      0.00   153.16     0  02:17           0       0.543       0.134
  HS02004479           JUNCTION      0.00    23.74     0  02:19           0      0.0899       0.817
  HS02004478           JUNCTION      0.00   205.05     0  02:18           0       0.897       0.070
  YS02001745           JUNCTION     76.22   153.04     0  04:24       0.821       0.862       1.324
  YS02001748           JUNCTION      0.04   288.65     0  03:41     0.00127       0.888       2.683
  YS02001751           JUNCTION      0.01   320.92     0  03:42     0.00031       0.825       2.780
  YS02001754           JUNCTION      0.26   124.27     0  03:41     0.00733       0.775       3.169
  YS02001762           JUNCTION      0.00   116.23     0  02:43           0       0.886       2.447
  YS02001765           JUNCTION      0.00   115.62     0  02:57           0       0.888       2.786
  YS02001767           JUNCTION      0.54   137.10     0  02:54      0.0151       0.909       3.994
  YS02001770           JUNCTION     97.68   146.32     0  02:59        0.96       0.987       3.267
  YS02001774           JUNCTION      0.00    50.95     0  02:55           0      0.0931      37.048
  YS02001779           JUNCTION      0.01    53.67     0  02:54    0.000141      0.0413      56.899
  YS02001882           JUNCTION      0.00     3.95     0  02:10           0     0.00526      46.757
  YS02001884           JUNCTION      0.00    11.35     0  02:07           0      0.0211      30.059
  YS02001759           JUNCTION     95.32   213.39     0  02:57       0.896        1.75       1.331
  YS02001887           JUNCTION    125.09   125.09     0  02:45        1.07        1.08       0.667
  YS02001890           JUNCTION      0.00   124.42     0  02:54           0        1.06       0.748
  YS02001898           JUNCTION      0.00   124.85     0  02:53           0        1.04       0.211
  YS02001901           JUNCTION      0.00   124.97     0  02:53           0        1.04       0.531
  YS02001904           JUNCTION      0.00   124.85     0  02:53           0        1.04       0.494
  YS02001907           JUNCTION      0.00   226.12     0  02:54           0        2.23       0.997
  YS02001910           JUNCTION      0.00   103.16     0  03:00           0         1.2       0.852
  YS02001915           JUNCTION     68.22   102.76     0  03:01       0.702        1.21       0.379
  YS02001918           JUNCTION      0.00    34.80     0  03:02           0       0.504       0.224
  YS02001619           JUNCTION     66.37    66.37     0  03:01       0.693       0.693       1.791
  YS02001629           JUNCTION      0.00   103.97     0  02:56           0       0.614       5.013
  YS02001641           JUNCTION      0.00   149.64     0  02:55           0        1.32       1.639
  YS02001644           JUNCTION     72.40   274.35     0  05:39       0.788        2.74       0.974
  YS02001652           JUNCTION      0.00   125.34     0  03:42           0       0.714       3.344
  YS02001655           JUNCTION      0.15   248.66     0  03:39     0.00434       0.761       3.243
  YS02001920           JUNCTION      2.87    34.82     0  03:02      0.0809       0.506       0.405
  YS02001923           JUNCTION      0.04    31.96     0  03:02     0.00106       0.425       0.071
  YS02001926           JUNCTION      0.05    31.99     0  03:01     0.00147       0.426       0.507
  YS02001929           JUNCTION     31.96    31.96     0  03:01       0.425       0.425       0.069
  YS02001658           JUNCTION      0.00   261.26     0  03:40           0       0.806       3.010
  YS02001661           JUNCTION      0.00   167.52     0  04:29           0       0.808       2.777
  YS02001664           JUNCTION     88.77    88.77     0  02:48       0.783       0.786       0.663
  YS02001622           JUNCTION      0.00    94.35     0  02:56           0       0.681       4.891
  YS02001633           JUNCTION     73.59   158.85     0  03:05       0.811        1.38       2.363
  YS02001649           JUNCTION      0.00   333.97     0  03:05           0        2.74       1.381
  YS02001757           JUNCTION      0.00   546.13     0  02:59           0        4.56       2.067
  YS02001895           JUNCTION      0.00   124.47     0  02:53           0        1.05       0.357
  YS02001625           JUNCTION      0.00    88.96     0  02:54           0       0.649       6.276
  YS02163301           JUNCTION      0.00    91.64     0  03:05           0       0.594       4.186
  YS02163601           JUNCTION      0.11   151.38     0  03:05      0.0031        1.34       2.304
  YS02164001           JUNCTION      0.00   148.32     0  02:55           0        1.32       1.568
  YS02001647           JUNCTION      0.00   221.26     0  02:55           0        2.19       1.296
  YSB1154              JUNCTION     12.79    12.79     0  02:16      0.0465      0.0479       3.107
  YSB6556              JUNCTION      0.00    12.78     0  02:18           0      0.0489       2.613
  YSB1174              JUNCTION     12.68    12.68     0  02:10      0.0339       0.035       3.812
  YSB1171              JUNCTION      0.00    23.69     0  02:16           0      0.0894       7.606
  YS02006553           JUNCTION      0.00   225.94     0  02:54           0        2.22       0.647
  YS02006561           JUNCTION      0.00   335.49     0  02:55           0        3.15       0.024
  YS02006556           JUNCTION      0.00   226.07     0  02:54           0        2.23       0.467
  YS02006558           JUNCTION    106.10   331.69     0  02:54       0.975        3.17       0.140
  YS02001783           JUNCTION      0.00   331.60     0  02:55           0        3.15       0.049
  YS02001784           JUNCTION      1.06   332.64     0  02:55      0.0299        3.17       0.080
  YS02001786           JUNCTION      0.06   332.64     0  02:54     0.00159        3.17       0.078
  YS02001788           JUNCTION      0.07   332.69     0  02:55       0.002        3.17       0.045
  YS02001790           JUNCTION      0.15   332.83     0  02:56     0.00437        3.17       0.056
  YS02001791           JUNCTION      0.00   332.82     0  02:56           0        3.17       0.028
  YS02001793           JUNCTION      0.00   332.82     0  02:56           0        3.17       0.011
  WS02004139           JUNCTION      0.32   191.11     0  00:00     0.00905        5.36       0.590
  WSC                  OUTFALL       0.00   571.80     0  02:41           0         9.3       0.000
  3                    OUTFALL       0.00   250.55     0  00:00           0        1.06       0.000
  4                    OUTFALL       0.00     0.00     0  00:00           0           0       0.000 ltr
  5                    OUTFALL       0.00     0.00     0  00:00           0           0       0.000 ltr
  JK-storage           STORAGE       0.00   332.82     0  02:56           0        3.32      -0.841
  CC-storage           STORAGE       0.00   545.72     0  03:00           0        3.92       1.684
  XR-storage           STORAGE     323.40   323.40     0  02:59        7.02        7.62      -0.001
  
  
  **********************
  Node Surcharge Summary
  **********************
  
  Surcharging occurs when water rises above the top of the highest conduit.
  ---------------------------------------------------------------------
                                               Max. Height   Min. Depth
                                   Hours       Above Crown    Below Rim
  Node                 Type      Surcharged         Meters       Meters
  ---------------------------------------------------------------------
  YS02001748           JUNCTION        3.12          0.211        0.979
  YS02001751           JUNCTION        3.88          0.562        0.638
  YS02001754           JUNCTION        4.36          0.706        0.444
  YS02001762           JUNCTION        5.10          0.965        0.185
  YS02001765           JUNCTION        4.99          0.915        0.185
  YS02001767           JUNCTION        4.87          0.877        0.153
  YS02001770           JUNCTION        4.75          0.842        0.078
  YS02001774           JUNCTION        5.06          0.945        0.105
  YS02001779           JUNCTION        4.28          0.680        0.000
  YS02001759           JUNCTION        5.16          1.000        0.210
  YS02001619           JUNCTION        3.75          0.462        0.148
  YS02001629           JUNCTION        3.76          0.456        0.014
  YS02001641           JUNCTION        5.03          0.924        0.176
  YS02001644           JUNCTION        5.05          0.920        0.000
  YS02001652           JUNCTION        4.46          0.733        0.397
  YS02001655           JUNCTION        3.97          0.510        0.690
  YS02001658           JUNCTION        3.17          0.219        1.081
  YS02001622           JUNCTION        3.83          0.485        0.135
  YS02001633           JUNCTION        4.95          0.904        0.156
  YS02001649           JUNCTION        5.13          0.970        0.080
  YS02001757           JUNCTION        5.32          1.102        0.108
  YS02001625           JUNCTION        4.54          0.780        0.000
  YS02163301           JUNCTION        4.83          0.868        0.162
  YS02163601           JUNCTION        5.12          0.975        0.105
  YS02164001           JUNCTION        4.99          0.909        0.191
  YS02001647           JUNCTION        4.51          0.746        0.154
  
  
  *********************
  Node Flooding Summary
  *********************
  
  Flooding refers to all water that overflows a node, whether it ponds or not.
  --------------------------------------------------------------------------
                                                             Total   Maximum
                                 Maximum   Time of Max       Flood    Ponded
                        Hours       Rate    Occurrence      Volume     Depth
  Node                 Flooded       LPS   days hr:min    10^6 ltr    Meters
  --------------------------------------------------------------------------
  YS02001779              0.03      1.68      0  05:28       0.000     0.000
  YS02001644              2.42    274.35      0  05:39       1.174     0.000
  YS02001625              0.01      3.65      0  05:20       0.000     0.000
  XR-storage              5.14    133.40      0  02:59       1.332     0.000
  
  
  **********************
  Storage Volume Summary
  **********************
  
  --------------------------------------------------------------------------------------------------
                         Average     Avg  Evap Exfil       Maximum     Max    Time of Max    Maximum
                          Volume    Pcnt  Pcnt  Pcnt        Volume    Pcnt     Occurrence    Outflow
  Storage Unit           1000 m3    Full  Loss  Loss       1000 m3    Full    days hr:min        LPS
  --------------------------------------------------------------------------------------------------
  JK-storage               0.011       4     0     0         0.151      52       0  00:00     300.00
  CC-storage               1.846      12     0     0         3.812      24       0  05:34      95.41
  XR-storage               0.874      94     0     0         0.926     100       0  02:41     190.00
  
  
  ***********************
  Outfall Loading Summary
  ***********************
  
  -----------------------------------------------------------
                         Flow       Avg       Max       Total
                         Freq      Flow      Flow      Volume
  Outfall Node           Pcnt       LPS       LPS    10^6 ltr
  -----------------------------------------------------------
  WSC                   99.99    380.13    571.80       9.295
  3                     68.69    115.83    250.55       1.056
  4                      0.00      0.00      0.00       0.000
  5                      0.00      0.00      0.00       0.000
  -----------------------------------------------------------
  System                42.17    495.96    738.62      10.352
  
  
  ********************
  Link Flow Summary
  ********************
  
  -----------------------------------------------------------------------------
                                 Maximum  Time of Max   Maximum    Max/    Max/
                                  |Flow|   Occurrence   |Veloc|    Full    Full
  Link                 Type          LPS  days hr:min     m/sec    Flow   Depth
  -----------------------------------------------------------------------------
  WS02003066WSF200     CONDUIT    358.71     0  02:36      2.48    0.06    0.19
  WS02006287WS02006284 CONDUIT    205.07     0  02:19      1.62    0.10    0.22
  WS02006284WS02006280 CONDUIT    205.17     0  02:19      1.86    0.09    0.20
  WS02006280WS02006229 CONDUIT    205.18     0  02:19      2.99    0.04    0.14
  WS02006229WS02006228 CONDUIT    361.49     0  02:26      0.83    1.20    0.94
  WS02006256WS02006235 CONDUIT    166.25     0  00:01      2.58    1.76    1.00
  WS02006253WS02006251 CONDUIT     39.89     0  02:18      0.49    0.12    0.27
  WS02006252WS02006251 CONDUIT      0.00     0  00:00      0.00    0.00    0.00
  WS02006251WS02006249 CONDUIT     39.90     0  02:19      0.54    0.12    0.25
  WS02006249WS02006248 CONDUIT     39.85     0  02:20      0.64    0.22    0.22
  WS02006248WS02006247 CONDUIT     39.84     0  02:20      0.62    0.09    0.22
  WS02006247WS02006245 CONDUIT     39.77     0  02:20      0.56    0.32    0.24
  WS02006245WS02006243 CONDUIT     39.73     0  02:22      0.69    0.12    0.24
  WS02006243WS02006242 CONDUIT     38.02     0  02:23      0.55    0.08    0.35
  WS02006242WS02006240 CONDUIT     36.62     0  02:28      0.64    0.15    0.45
  WS02006240WS02006239 CONDUIT     42.32     0  00:11      0.58    0.13    0.47
  WS02006239WS02006238 CONDUIT     71.07     0  00:01      0.67    0.23    0.58
  WS02006238WS02006235 CONDUIT     94.85     0  00:11      1.25    0.21    0.63
  WS02006235WS02006234 CONDUIT    167.94     0  02:35      0.93    1.77    0.58
  WS02006234WS02006232 CONDUIT    168.38     0  02:35      1.13    0.34    0.66
  WS02006232WS02006231 CONDUIT    168.88     0  02:36      0.67    0.35    0.64
  WS02006231WS02006230 CONDUIT    169.60     0  02:36      1.01    2.57    0.53
  WS02006230WS02006229 CONDUIT    181.18     0  02:37      0.86    4.03    1.00
  WS02006228WS02006109 CONDUIT    361.52     0  02:26      0.75    1.58    0.97
  WS02006116WS02004401 CONDUIT    363.39     0  02:30      0.73    0.50    0.70
  WS02006115WS02006116 CONDUIT    364.52     0  02:29      0.79    0.47    0.61
  WS02006113WS02006111 CONDUIT    369.32     0  02:27      2.15    0.44    0.37
  WS02006112WS02006115 CONDUIT    366.77     0  02:28      0.61    0.22    0.74
  WS02006111WS02006112 CONDUIT    363.07     0  02:27      1.32    0.17    0.64
  WS02006110WS02006113 CONDUIT    362.69     0  02:26      0.94    0.33    0.72
  WS02006109WS02006110 CONDUIT    362.73     0  02:26      0.75    0.70    0.91
  WS02004411WS02004412 CONDUIT    359.16     0  02:35      0.76    0.51    0.58
  WS02004401WS02004402 CONDUIT    362.67     0  02:30      0.77    0.44    0.73
  WS02004413WS02003067 CONDUIT    358.70     0  02:36      0.89    0.15    0.51
  WS02004412WS02004413 CONDUIT    358.82     0  02:35      0.64    0.24    0.67
  WS02004410WS02004411 CONDUIT    359.74     0  02:34      0.80    0.49    0.56
  WS02004409WS02004410 CONDUIT    360.70     0  02:33      0.84    0.47    0.54
  WS02004407WS02004409 CONDUIT    361.97     0  02:33      1.33    0.13    0.39
  WS02004406WS02004407 CONDUIT    362.00     0  02:32      0.82    0.16    0.55
  WS02004405WS02004406 CONDUIT    362.05     0  02:32      0.66    0.71    0.85
  WS02004404WS02004405 CONDUIT    362.08     0  02:32      0.84    3.55    0.84
  WS02004403WS02004404 CONDUIT    362.02     0  02:31      0.74    0.26    0.81
  WS02004402WS02004403 CONDUIT    362.27     0  02:31      0.75    0.52    0.76
  WS02004139WS02001211 CONDUIT    190.63     0  02:55      0.69    0.24    0.45
  WS02004138WS02004139 CONDUIT    190.79     0  00:00      2.94    0.04    0.32
  WS02003067WS02003066 CONDUIT    358.71     0  02:36      0.96    0.11    0.36
  WS02001213WS02003059 CONDUIT    199.45     0  02:53      0.65    0.33    0.62
  WS02001212WS02001213 CONDUIT    198.68     0  02:54      1.03    0.31    0.32
  WS02001211WS02001212 CONDUIT    198.35     0  02:54      0.54    0.15    0.49
  WS02003072WS02003073 CONDUIT    570.02     0  02:40      1.45    1.23    0.38
  WS02003069WS02003072 CONDUIT    570.02     0  02:39      1.38    0.27    0.39
  WS02003060WS02003069 CONDUIT    569.73     0  02:39      1.65    0.22    0.34
  WS02003059WS02003060 CONDUIT    200.54     0  02:53      0.67    0.13    0.53
  HS02004901HS02004770 CONDUIT     10.28     0  02:16      0.05    0.04    0.32
  HS02004876HS02004881 CONDUIT     34.72     0  02:19      0.56    0.37    0.09
  HS02004870HS02004876 CONDUIT     27.59     0  02:19      0.39    0.02    0.10
  HS02004842HS02004848 CONDUIT      5.46     0  02:31      0.03    0.00    0.27
  HS02004837HS02004842 CONDUIT      5.63     0  02:32      0.41    0.00    0.29
  HS02004830HS02004837 CONDUIT     23.73     0  02:18      0.44    0.02    0.08
  HS02004824HS02004830 CONDUIT     23.88     0  02:19      0.48    0.03    0.07
  HS02004817HS02004824 CONDUIT     38.48     0  02:22      0.17    0.02    0.40
  HS02004770HS02004777 CONDUIT     52.37     0  02:15      0.23    0.10    0.33
  HS02004799HS02004480 CONDUIT    129.68     0  02:17      0.59    0.16    0.31
  HS02004792HS02004799 CONDUIT    118.52     0  02:16      0.68    0.07    0.25
  HS02004788HS02004792 CONDUIT     69.01     0  02:17      0.83    0.05    0.12
  HS02004785HS02004788 CONDUIT     52.02     0  02:17      0.51    0.39    0.14
  HS02004777HS02004785 CONDUIT     51.97     0  02:16      0.27    0.06    0.27
  HS02004480HS02004478 CONDUIT    153.12     0  02:17      0.96    0.64    0.23
  HS02004479HS02004480 CONDUIT     23.96     0  02:19      0.15    0.02    0.31
  HS02004862HS02004870 CONDUIT     20.13     0  02:20      0.47    0.02    0.06
  HS02004848HS02004852 CONDUIT      8.10     0  02:19      0.31    0.01    0.04
  HS02004856HS02004862 CONDUIT     13.61     0  02:19      0.34    0.01    0.06
  HS02004852HS02004856 CONDUIT      8.07     0  02:20      0.12    0.01    0.09
  HS02004802HS02004478 CONDUIT     53.38     0  02:22      0.30    0.05    0.26
  HS02004478WS02006287 CONDUIT    205.06     0  02:19      1.32    0.06    0.17
  HS02004817HS02004807 CONDUIT     39.63     0  02:24      0.11    0.02    0.51
  HS02004807HS02004802 CONDUIT     53.00     0  02:22      0.25    0.10    0.30
  YS02001759YS02001757 CONDUIT    215.50     0  02:57      0.27    0.15    1.00
  YS02001762YS02001759 CONDUIT    118.32     0  02:57      0.17    0.14    1.00
  YS02001765YS02001762 CONDUIT    116.23     0  02:43      0.23    0.11    1.00
  YS02001770YS02001767 CONDUIT    136.57     0  02:54      0.32    0.54    1.00
  YS02001774YS02001770 CONDUIT     49.65     0  02:54      0.15    0.03    1.00
  YS02001779YS02001774 CONDUIT     53.66     0  02:54      0.07    0.03    1.00
  YS02001649YS02001757 CONDUIT    336.02     0  03:05      0.43    0.20    1.00
  YS02001767YS02001765 CONDUIT    115.62     0  02:57      0.26    0.15    1.00
  YS02006561YS02001783 CONDUIT    331.60     0  02:55      1.81    0.17    0.39
  YS02001783YS02001784 CONDUIT    331.58     0  02:55      1.26    0.46    0.52
  YS02001784YS02001785 CONDUIT    332.58     0  02:54      1.34    0.77    0.50
  YS02001788YS02001790 CONDUIT    332.68     0  02:56      1.90    0.25    0.38
  YS02001790YS02001791 CONDUIT    332.82     0  02:56      2.17    0.36    0.34
  YS02001791YS02001793 CONDUIT    332.82     0  02:56      4.47    0.14    0.21
  YS02001910YS02001907 CONDUIT    103.26     0  03:00      0.49    0.06    0.75
  YS02001786YS02001788 CONDUIT    332.61     0  02:55      1.78    0.64    0.40
  YS02001915YS02001910 CONDUIT    103.16     0  03:00      0.44    0.05    0.54
  YS02001918YS02001915 CONDUIT     34.78     0  03:03      0.44    0.02    0.26
  YS02001923YS02001920 CONDUIT     31.95     0  03:02      0.46    0.01    0.14
  YS02001926YS02001923 CONDUIT     31.92     0  03:02      0.50    0.05    0.14
  YS02001929YS02001926 CONDUIT     31.94     0  03:01      0.53    0.02    0.13
  YS02001920YS02001918 CONDUIT     34.80     0  03:02      0.47    0.03    0.15
  YS02001629YS02163301 CONDUIT     91.64     0  03:05      0.12    0.11    1.00
  YS02001619YS02001622 CONDUIT     94.35     0  02:56      0.65    0.14    1.00
  YS02001622YS02001625 CONDUIT     88.96     0  02:54      0.25    0.05    1.00
  YS02001625YS02001629 CONDUIT    103.97     0  02:56      0.25    0.05    1.00
  YS02163301YS02001633 CONDUIT     87.76     0  03:05      0.11    0.08    1.00
  YS02163601YS02164001 CONDUIT    148.32     0  02:55      0.19    0.13    1.00
  YS02164001YS02001641 CONDUIT    149.64     0  02:55      0.19    0.20    1.00
  YS02001641YS02001644 CONDUIT    147.95     0  03:05      0.19    0.48    1.00
  YS02001647YS02001649 CONDUIT    265.89     0  03:05      0.34    0.14    1.00
  YS02006553YS02006556 CONDUIT    226.07     0  02:54      0.32    0.19    0.83
  YS02006556YS02006558 CONDUIT    225.96     0  02:54      0.32    0.18    0.86
  YSB6556YSB1171       CONDUIT     12.95     0  02:20      0.06    0.01    0.57
  YS02001907YS02006553 CONDUIT    225.94     0  02:54      0.27    0.27    0.94
  YS02006558YS02006561 CONDUIT    335.49     0  02:55      2.36    0.74    0.50
  YS02001633YS02163601 CONDUIT    151.27     0  03:05      0.19    0.16    1.00
  YS02001644YS02001647 CONDUIT    221.26     0  02:55      0.29    0.13    1.00
  YS02001745YS02001748 CONDUIT    191.37     0  04:25      1.41    0.07    0.93
  YS02001748YS02001751 CONDUIT    295.55     0  03:42      1.09    0.15    1.00
  YS02001751YS02001754 CONDUIT    124.01     0  03:41      0.96    0.06    1.00
  YS02001754YS02001757 CONDUIT    132.20     0  03:41      0.33    0.05    1.00
  YS02001882YS02001884 CONDUIT      3.95     0  02:10      0.06    0.00    0.47
  YS02001884YS02001887 CONDUIT     11.35     0  02:07      0.06    0.02    0.57
  YS02001890YS02001895 CONDUIT    124.47     0  02:53      0.29    0.06    0.54
  YS02001895YS02001898 CONDUIT    124.85     0  02:53      0.48    0.22    0.40
  YS02001898YS02001901 CONDUIT    124.97     0  02:53      0.33    0.08    0.48
  YS02001901YS02001904 CONDUIT    124.85     0  02:53      0.29    0.19    0.53
  YS02001904YS02001907 CONDUIT    124.73     0  02:54      0.22    0.04    0.69
  YS02001887YS02001890 CONDUIT    124.42     0  02:54      0.24    0.21    0.62
  YS02001652YS02001649 CONDUIT    140.51     0  03:03      0.32    0.07    1.00
  YS02001655YS02001652 CONDUIT    125.34     0  03:42      1.04    0.06    1.00
  YS02001658YS02001655 CONDUIT    238.13     0  03:40      1.26    0.10    1.00
  YS02001661YS02001658 CONDUIT    169.61     0  04:30      1.46    0.07    0.94
  YS02001664YS02001661 CONDUIT    106.71     0  04:29      1.13    0.03    0.70
  YSB1154YSB6556       CONDUIT     12.78     0  02:18      0.19    0.02    0.46
  YSB1174YSB1171       CONDUIT     11.78     0  02:11      0.05    0.02    0.58
  YSB1171HS02004479    CONDUIT     23.74     0  02:19      0.54    0.02    0.45
  HS02004881HS02006253 CONDUIT     38.86     0  02:18      1.66    0.01    0.03
  YS02001793JiankangQianchi CONDUIT    332.82     0  02:56     13.02    0.03    0.50
  YS02001757CaochengTiaoxuchi CONDUIT    545.72     0  03:00      1.02    0.24    1.00
  WSF200WS02003060     CONDUIT    358.68     0  02:37      1.50    0.08    0.26
  1                    CONDUIT    571.80     0  02:41      2.85    0.20    0.30
  2                    CONDUIT      0.00     0  00:00      0.00    0.00    0.00
  3                    CONDUIT    250.55     0  00:00      8.26    0.40    0.46
  4                    CONDUIT      0.00     0  00:00      0.00    0.00    0.00
  CC-Pump-1            PUMP         0.00     0  00:00              0.00
  CC-Pump-2            PUMP         0.00     0  00:00              0.00
  JK-Pump-1            PUMP       300.00     0  00:00              1.00
  JK-Pump-2            PUMP       300.00     0  02:36              1.00
  XR-Pump-1            PUMP        95.00     0  00:00              1.00
  XR-Pump-2            PUMP        95.00     0  00:00              1.00
  XR-Pump-3            PUMP         0.00     0  00:00              0.00
  XR-Pump-4            PUMP        95.00     0  00:20              1.00
  
  
  ***************************
  Flow Classification Summary
  ***************************
  
  -------------------------------------------------------------------------------------
                      Adjusted    ---------- Fraction of Time in Flow Class ---------- 
                       /Actual         Up    Down  Sub   Sup   Up    Down  Norm  Inlet 
  Conduit               Length    Dry  Dry   Dry   Crit  Crit  Crit  Crit  Ltd   Ctrl  
  -------------------------------------------------------------------------------------
  WS02003066WSF200        1.00   0.12  0.00  0.00  0.00  0.88  0.00  0.00  0.76  0.00
  WS02006287WS02006284    1.00   0.07  0.03  0.00  0.49  0.41  0.00  0.00  0.77  0.00
  WS02006284WS02006280    1.00   0.09  0.00  0.00  0.00  0.00  0.00  0.91  0.00  0.00
  WS02006280WS02006229    1.00   0.09  0.00  0.00  0.00  0.00  0.00  0.91  0.00  0.00
  WS02006229WS02006228    1.00   0.00  0.00  0.00  0.97  0.00  0.00  0.03  0.00  0.00
  WS02006256WS02006235    1.00   0.00  0.00  0.00  0.99  0.01  0.00  0.00  0.00  0.00
  WS02006253WS02006251    1.00   0.06  0.02  0.00  0.92  0.00  0.00  0.00  0.00  0.00
  WS02006252WS02006251    1.00   1.00  0.00  0.00  0.00  0.00  0.00  0.00  0.00  0.00
  WS02006251WS02006249    1.00   0.00  0.00  0.00  1.00  0.00  0.00  0.00  0.95  0.00
  WS02006249WS02006248    1.00   0.00  0.04  0.00  0.00  0.00  0.96  0.00  0.00  0.00
  WS02006248WS02006247    1.00   0.04  0.00  0.00  0.95  0.00  0.00  0.00  0.87  0.00
  WS02006247WS02006245    1.00   0.04  0.00  0.00  0.96  0.00  0.00  0.00  0.00  0.00
  WS02006245WS02006243    1.00   0.02  0.01  0.00  0.89  0.00  0.00  0.08  0.16  0.00
  WS02006243WS02006242    1.00   0.01  0.01  0.00  0.98  0.00  0.00  0.00  0.39  0.00
  WS02006242WS02006240    1.00   0.01  0.00  0.00  0.99  0.00  0.00  0.00  0.00  0.00
  WS02006240WS02006239    1.00   0.00  0.00  0.00  0.91  0.00  0.00  0.08  0.01  0.00
  WS02006239WS02006238    1.00   0.00  0.00  0.00  1.00  0.00  0.00  0.00  0.01  0.00
  WS02006238WS02006235    1.00   0.00  0.00  0.00  1.00  0.00  0.00  0.00  0.00  0.00
  WS02006235WS02006234    1.00   0.00  0.00  0.00  0.91  0.00  0.09  0.00  0.00  0.00
  WS02006234WS02006232    1.00   0.00  0.00  0.00  0.99  0.01  0.00  0.00  0.17  0.00
  WS02006232WS02006231    1.00   0.00  0.01  0.00  0.99  0.00  0.01  0.00  0.00  0.00
  WS02006231WS02006230    1.00   0.01  0.00  0.00  0.20  0.00  0.80  0.00  0.00  0.00
  WS02006230WS02006229    1.00   0.00  0.00  0.00  0.97  0.00  0.00  0.03  0.01  0.00
  WS02006228WS02006109    1.00   0.00  0.00  0.00  0.99  0.00  0.00  0.01  0.00  0.00
  WS02006116WS02004401    1.00   0.05  0.00  0.00  0.95  0.00  0.00  0.00  0.00  0.00
  WS02006115WS02006116    1.00   0.05  0.00  0.00  0.94  0.00  0.00  0.01  0.00  0.00
  WS02006113WS02006111    1.00   0.04  0.00  0.00  0.00  0.96  0.00  0.00  0.16  0.00
  WS02006112WS02006115    1.00   0.04  0.01  0.00  0.95  0.00  0.00  0.00  0.00  0.00
  WS02006111WS02006112    1.00   0.04  0.00  0.00  0.95  0.00  0.00  0.00  0.98  0.00
  WS02006110WS02006113    1.00   0.02  0.02  0.00  0.96  0.00  0.00  0.00  0.00  0.00
  WS02006109WS02006110    1.00   0.00  0.02  0.00  0.96  0.00  0.01  0.00  0.00  0.00
  WS02004411WS02004412    1.00   0.08  0.00  0.00  0.92  0.00  0.00  0.00  0.00  0.00
  WS02004401WS02004402    1.00   0.05  0.00  0.00  0.95  0.00  0.00  0.00  0.00  0.00
  WS02004413WS02003067    1.00   0.08  0.03  0.00  0.00  0.00  0.90  0.00  0.00  0.00
  WS02004412WS02004413    1.00   0.08  0.00  0.00  0.92  0.00  0.00  0.00  0.03  0.00
  WS02004410WS02004411    1.00   0.07  0.00  0.00  0.93  0.00  0.00  0.00  0.04  0.00
  WS02004409WS02004410    1.00   0.07  0.00  0.00  0.93  0.00  0.00  0.00  0.04  0.00
  WS02004407WS02004409    1.00   0.07  0.00  0.00  0.92  0.00  0.00  0.00  0.89  0.00
  WS02004406WS02004407    1.00   0.00  0.07  0.00  0.93  0.00  0.00  0.00  0.00  0.00
  WS02004405WS02004406    1.00   0.00  0.00  0.00  1.00  0.00  0.00  0.00  0.00  0.00
  WS02004404WS02004405    1.00   0.00  0.00  0.00  1.00  0.00  0.00  0.00  0.00  0.00
  WS02004403WS02004404    1.00   0.00  0.05  0.00  0.95  0.00  0.00  0.00  0.01  0.00
  WS02004402WS02004403    1.00   0.05  0.00  0.00  0.95  0.00  0.00  0.00  0.00  0.00
  WS02004139WS02001211    1.00   0.00  0.00  0.00  0.99  0.00  0.01  0.00  0.00  0.00
  WS02004138WS02004139    1.00   0.00  0.00  0.00  0.98  0.02  0.00  0.00  1.00  0.00
  WS02003067WS02003066    1.00   0.10  0.01  0.00  0.89  0.00  0.00  0.00  0.00  0.00
  WS02001213WS02003059    1.00   0.00  0.01  0.00  0.99  0.00  0.00  0.00  0.00  0.00
  WS02001212WS02001213    1.00   0.01  0.00  0.00  0.27  0.00  0.72  0.00  0.00  0.00
  WS02001211WS02001212    1.00   0.00  0.01  0.00  0.99  0.00  0.00  0.00  0.00  0.00
  WS02003072WS02003073    1.00   0.00  0.00  0.00  0.00  0.00  0.00  1.00  0.00  0.00
  WS02003069WS02003072    1.00   0.00  0.00  0.00  0.99  0.01  0.00  0.00  0.72  0.00
  WS02003060WS02003069    1.00   0.00  0.00  0.00  0.97  0.03  0.00  0.00  0.24  0.00
  WS02003059WS02003060    1.00   0.00  0.00  0.00  0.99  0.01  0.00  0.00  0.01  0.00
  HS02004901HS02004770    1.00   0.08  0.00  0.00  0.91  0.00  0.00  0.00  0.02  0.00
  HS02004876HS02004881    1.00   0.04  0.00  0.00  0.96  0.00  0.00  0.00  0.00  0.00
  HS02004870HS02004876    1.00   0.01  0.00  0.00  0.99  0.00  0.00  0.00  0.95  0.00
  HS02004842HS02004848    1.00   0.00  0.09  0.00  0.91  0.00  0.00  0.00  0.68  0.00
  HS02004837HS02004842    1.00   0.00  0.00  0.00  0.99  0.01  0.00  0.00  0.11  0.00
  HS02004830HS02004837    1.00   0.00  0.00  0.00  1.00  0.00  0.00  0.00  0.99  0.00
  HS02004824HS02004830    1.00   0.00  0.00  0.00  1.00  0.00  0.00  0.00  0.00  0.00
  HS02004817HS02004824    1.00   0.00  0.00  0.00  1.00  0.00  0.00  0.00  1.00  0.00
  HS02004770HS02004777    1.00   0.00  0.08  0.00  0.91  0.00  0.00  0.00  0.07  0.00
  HS02004799HS02004480    1.00   0.01  0.05  0.00  0.89  0.00  0.06  0.00  0.00  0.00
  HS02004792HS02004799    1.00   0.00  0.00  0.00  0.97  0.03  0.00  0.00  0.98  0.00
  HS02004788HS02004792    1.00   0.00  0.00  0.00  0.98  0.02  0.00  0.00  0.98  0.00
  HS02004785HS02004788    1.00   0.00  0.00  0.00  1.00  0.00  0.00  0.00  0.00  0.00
  HS02004777HS02004785    1.00   0.00  0.00  0.00  1.00  0.00  0.00  0.00  0.21  0.00
  HS02004480HS02004478    1.00   0.09  0.00  0.00  0.55  0.00  0.00  0.35  0.00  0.00
  HS02004479HS02004480    1.00   0.05  0.00  0.00  0.95  0.00  0.00  0.00  0.16  0.00
  HS02004862HS02004870    1.00   0.00  0.00  0.00  1.00  0.00  0.00  0.00  0.06  0.00
  HS02004848HS02004852    1.00   0.09  0.00  0.00  0.91  0.00  0.00  0.00  0.71  0.00
  HS02004856HS02004862    1.00   0.00  0.13  0.00  0.87  0.00  0.00  0.00  0.74  0.00
  HS02004852HS02004856    1.00   0.08  0.01  0.00  0.90  0.00  0.00  0.00  0.83  0.00
  HS02004802HS02004478    1.00   0.09  0.01  0.00  0.90  0.00  0.00  0.00  0.01  0.00
  HS02004478WS02006287    1.00   0.10  0.00  0.00  0.78  0.11  0.00  0.00  0.77  0.00
  HS02004817HS02004807    1.00   0.00  0.09  0.00  0.91  0.00  0.00  0.00  0.00  0.00
  HS02004807HS02004802    1.00   0.09  0.00  0.00  0.91  0.00  0.00  0.00  0.01  0.00
  YS02001759YS02001757    1.00   0.00  0.00  0.00  1.00  0.00  0.00  0.00  0.17  0.00
  YS02001762YS02001759    1.00   0.00  0.00  0.00  1.00  0.00  0.00  0.00  0.04  0.00
  YS02001765YS02001762    1.00   0.00  0.00  0.00  1.00  0.00  0.00  0.00  0.22  0.00
  YS02001770YS02001767    1.00   0.00  0.00  0.00  1.00  0.00  0.00  0.00  0.00  0.00
  YS02001774YS02001770    1.00   0.00  0.10  0.00  0.90  0.00  0.00  0.00  0.07  0.00
  YS02001779YS02001774    1.00   0.00  0.00  0.00  1.00  0.00  0.00  0.00  0.26  0.00
  YS02001649YS02001757    1.00   0.00  0.00  0.00  1.00  0.00  0.00  0.00  0.19  0.00
  YS02001767YS02001765    1.00   0.00  0.00  0.00  1.00  0.00  0.00  0.00  0.01  0.00
  YS02006561YS02001783    1.00   0.13  0.00  0.00  0.00  0.87  0.00  0.00  0.73  0.00
  YS02001783YS02001784    1.00   0.00  0.13  0.00  0.87  0.00  0.00  0.00  0.00  0.00
  YS02001784YS02001785    1.00   0.00  0.00  0.00  1.00  0.00  0.00  0.00  0.25  0.00
  YS02001788YS02001790    1.00   0.00  0.00  0.00  0.14  0.86  0.00  0.00  0.76  0.00
  YS02001790YS02001791    1.00   0.00  0.00  0.00  0.03  0.97  0.00  0.00  0.55  0.00
  YS02001791YS02001793    1.00   0.00  0.00  0.00  0.00  1.00  0.00  0.00  0.00  0.00
  YS02001910YS02001907    1.00   0.00  0.00  0.00  0.95  0.00  0.00  0.05  0.13  0.00
  YS02001786YS02001788    1.00   0.00  0.00  0.00  0.14  0.86  0.00  0.00  0.00  0.00
  YS02001915YS02001910    1.00   0.00  0.00  0.00  0.98  0.02  0.00  0.00  0.24  0.00
  YS02001918YS02001915    1.00   0.00  0.01  0.00  0.96  0.03  0.00  0.00  0.81  0.00
  YS02001923YS02001920    1.00   0.00  0.00  0.00  1.00  0.00  0.00  0.00  1.00  0.00
  YS02001926YS02001923    1.00   0.00  0.07  0.00  0.00  0.00  0.93  0.00  0.00  0.00
  YS02001929YS02001926    1.00   0.00  0.08  0.00  0.92  0.00  0.00  0.00  0.87  0.00
  YS02001920YS02001918    1.00   0.00  0.01  0.00  0.99  0.00  0.00  0.00  0.00  0.00
  YS02001629YS02163301    1.00   0.11  0.01  0.00  0.88  0.00  0.00  0.00  0.00  0.00
  YS02001619YS02001622    1.00   0.08  0.00  0.00  0.92  0.00  0.00  0.00  0.00  0.00
  YS02001622YS02001625    1.00   0.09  0.00  0.00  0.91  0.00  0.00  0.00  0.13  0.00
  YS02001625YS02001629    1.00   0.09  0.05  0.00  0.84  0.00  0.02  0.00  0.00  0.00
  YS02163301YS02001633    1.00   0.00  0.11  0.00  0.89  0.00  0.00  0.00  0.00  0.00
  YS02163601YS02164001    1.00   0.00  0.07  0.00  0.93  0.00  0.00  0.00  0.00  0.00
  YS02164001YS02001641    1.00   0.02  0.05  0.00  0.93  0.00  0.00  0.00  0.07  0.00
  YS02001641YS02001644    1.00   0.00  0.01  0.00  0.99  0.00  0.00  0.00  0.00  0.00
  YS02001647YS02001649    1.00   0.00  0.13  0.00  0.87  0.00  0.00  0.00  0.01  0.00
  YS02006553YS02006556    1.00   0.03  0.00  0.00  0.97  0.00  0.00  0.00  0.03  0.00
  YS02006556YS02006558    1.00   0.00  0.01  0.00  0.99  0.00  0.00  0.00  0.00  0.00
  YSB6556YSB1171          1.00   0.05  0.03  0.00  0.92  0.00  0.00  0.00  0.00  0.00
  YS02001907YS02006553    1.00   0.01  0.04  0.00  0.95  0.00  0.00  0.00  0.00  0.00
  YS02006558YS02006561    1.00   0.13  0.00  0.00  0.00  0.87  0.00  0.00  0.71  0.00
  YS02001633YS02163601    1.00   0.00  0.02  0.00  0.98  0.00  0.00  0.00  0.20  0.00
  YS02001644YS02001647    1.00   0.00  0.13  0.00  0.87  0.00  0.00  0.00  0.00  0.00
  YS02001745YS02001748    1.00   0.00  0.00  0.00  0.76  0.03  0.00  0.21  0.11  0.00
  YS02001748YS02001751    1.00   0.00  0.00  0.00  0.96  0.04  0.00  0.00  0.24  0.00
  YS02001751YS02001754    1.00   0.00  0.00  0.00  0.86  0.00  0.00  0.14  0.02  0.00
  YS02001754YS02001757    1.00   0.00  0.00  0.00  0.99  0.01  0.00  0.00  0.26  0.00
  YS02001882YS02001884    1.00   0.11  0.01  0.00  0.88  0.00  0.00  0.00  0.00  0.00
  YS02001884YS02001887    1.00   0.06  0.02  0.00  0.92  0.00  0.00  0.00  0.00  0.00
  YS02001890YS02001895    1.00   0.01  0.11  0.00  0.88  0.00  0.00  0.00  0.00  0.00
  YS02001895YS02001898    1.00   0.12  0.00  0.00  0.87  0.00  0.01  0.00  0.00  0.00
  YS02001898YS02001901    1.00   0.11  0.01  0.00  0.88  0.00  0.00  0.00  0.02  0.00
  YS02001901YS02001904    1.00   0.11  0.00  0.00  0.89  0.00  0.00  0.00  0.00  0.00
  YS02001904YS02001907    1.00   0.01  0.11  0.00  0.89  0.00  0.00  0.00  0.00  0.00
  YS02001887YS02001890    1.00   0.00  0.00  0.00  0.95  0.00  0.05  0.00  0.00  0.00
  YS02001652YS02001649    1.00   0.00  0.00  0.00  1.00  0.00  0.00  0.00  0.26  0.00
  YS02001655YS02001652    1.00   0.00  0.00  0.00  0.86  0.00  0.00  0.14  0.02  0.00
  YS02001658YS02001655    1.00   0.00  0.10  0.00  0.85  0.05  0.00  0.00  0.11  0.00
  YS02001661YS02001658    1.00   0.10  0.00  0.00  0.76  0.14  0.00  0.00  0.14  0.00
  YS02001664YS02001661    1.00   0.08  0.00  0.00  0.63  0.29  0.00  0.00  0.41  0.00
  YSB1154YSB6556          1.00   0.08  0.00  0.00  0.92  0.00  0.00  0.00  0.02  0.00
  YSB1174YSB1171          1.00   0.06  0.01  0.00  0.93  0.00  0.00  0.00  0.00  0.00
  YSB1171HS02004479       1.00   0.05  0.00  0.00  0.94  0.00  0.00  0.00  0.13  0.00
  HS02004881HS02006253    1.00   0.06  0.00  0.00  0.00  0.00  0.00  0.94  0.00  0.00
  YS02001793JiankangQianchi    1.00   0.00  0.00  0.00  0.20  0.79  0.00  0.00  0.14  0.00
  YS02001757CaochengTiaoxuchi    1.00   0.00  0.15  0.00  0.85  0.00  0.00  0.00  0.00  0.00
  WSF200WS02003060        1.00   0.00  0.12  0.00  0.84  0.05  0.00  0.00  0.66  0.00
  1                       1.00   0.00  0.00  0.00  0.00  1.00  0.00  0.00  0.18  0.00
  2                       1.00   1.00  0.00  0.00  0.00  0.00  0.00  0.00  0.00  0.00
  3                       1.00   0.31  0.00  0.00  0.00  0.69  0.00  0.00  0.27  0.00
  4                       1.00   1.00  0.00  0.00  0.00  0.00  0.00  0.00  0.00  0.00
  
  
  *************************
  Conduit Surcharge Summary
  *************************
  
  ----------------------------------------------------------------------------
                                                           Hours        Hours 
                         --------- Hours Full --------   Above Full   Capacity
  Conduit                Both Ends  Upstream  Dnstream   Normal Flow   Limited
  ----------------------------------------------------------------------------
  WS02006229WS02006228        0.01      0.01      0.01      0.50         0.01
  WS02006256WS02006235        4.10      4.10      6.32      3.80         0.01
  WS02006235WS02006234        0.01      0.01      0.01      3.82         0.01
  WS02006231WS02006230        0.01      0.01      0.01      5.10         0.01
  WS02006230WS02006229        0.13      0.23      0.13      5.80         0.13
  WS02006228WS02006109        0.01      0.01      0.01      1.00         0.01
  WS02006111WS02006112        0.01      0.01      0.60      0.01         0.01
  WS02004404WS02004405        0.01      0.01      0.01      4.47         0.01
  WS02003072WS02003073        0.01      0.01      0.01      0.89         0.01
  YS02001759YS02001757        5.16      5.16      5.32      0.01         0.01
  YS02001762YS02001759        5.10      5.10      5.16      0.01         0.01
  YS02001765YS02001762        4.99      4.99      5.10      0.01         0.01
  YS02001770YS02001767        4.85      4.87      4.87      0.01         0.37
  YS02001774YS02001770        4.75      4.75      5.06      0.01         0.01
  YS02001779YS02001774        4.28      4.28      5.06      0.01         0.01
  YS02001649YS02001757        5.13      5.13      5.32      0.01         0.01
  YS02001767YS02001765        4.87      4.87      4.99      0.01         0.01
  YS02001629YS02163301        4.70      4.70      4.83      0.01         0.01
  YS02001619YS02001622        3.75      3.75      3.83      0.01         0.01
  YS02001622YS02001625        3.83      3.83      4.54      0.01         0.01
  YS02001625YS02001629        3.76      3.76      4.54      0.01         0.01
  YS02163301YS02001633        4.83      4.83      5.01      0.01         0.01
  YS02163601YS02164001        4.99      4.99      5.12      0.01         0.01
  YS02164001YS02001641        4.99      4.99      5.03      0.01         0.01
  YS02001641YS02001644        5.03      5.03      5.05      0.01         0.46
  YS02001647YS02001649        4.51      4.51      5.13      0.01         0.01
  YS02001633YS02163601        4.95      4.95      5.12      0.01         0.01
  YS02001644YS02001647        4.51      4.51      5.05      0.01         0.01
  YS02001745YS02001748        0.01      0.01      3.12      0.01         0.01
  YS02001748YS02001751        3.38      3.38      3.88      0.01         0.01
  YS02001751YS02001754        3.88      3.88      4.35      0.01         0.01
  YS02001754YS02001757        4.52      4.52      5.32      0.01         0.01
  YS02001652YS02001649        4.55      4.55      5.13      0.01         0.01
  YS02001655YS02001652        3.97      3.97      4.46      0.01         0.01
  YS02001658YS02001655        3.17      3.17      3.97      0.01         0.01
  YS02001661YS02001658        0.01      0.01      3.17      0.01         0.01
  YS02001793JiankangQianchi        0.01      0.01      0.09      0.01         0.01
  YS02001757CaochengTiaoxuchi        3.55      3.55      5.32      0.01         0.01
  
  
  ***************
  Pumping Summary
  ***************
  
  ---------------------------------------------------------------------------------------------------------
                                                  Min       Avg       Max     Total     Power    % Time Off
                        Percent   Number of      Flow      Flow      Flow    Volume     Usage    Pump Curve
  Pump                 Utilized   Start-Ups       LPS       LPS       LPS  10^6 ltr     Kw-hr    Low   High
  ---------------------------------------------------------------------------------------------------------
  CC-Pump-1                0.00           0      0.00      0.00      0.00     0.000      0.00    0.0    0.0
  CC-Pump-2                0.00           0      0.00      0.00      0.00     0.000      0.00    0.0    0.0
  JK-Pump-1                4.26           1      0.00    252.73    300.00     0.179      2.80    0.0    0.0
  JK-Pump-2               97.86           1      0.00    185.72    300.00     3.172     59.96    0.0    0.0
  XR-Pump-1                4.26           1      0.00     88.26     95.00     0.086      1.01    0.0    0.0
  XR-Pump-2              100.00           1      0.00     95.00     95.00     2.679     17.41    0.0    0.0
  XR-Pump-3                0.00           0      0.00      0.00      0.00     0.000      0.00    0.0    0.0
  XR-Pump-4               97.86           1      0.00     94.55     95.00     2.593     16.40    0.0    0.0
  

  Analysis begun on:  Thu Jan  6 00:46:06 2022
  Analysis ended on:  Thu Jan  6 00:46:08 2022
  Total elapsed time: 00:00:02