
  EPA STORM WATER MANAGEMENT MODEL - VERSION 5.1 (Build 5.3.0.dev0)
  --------------------------------------------------------------

  WARNING 04: minimum elevation drop used for Conduit WS02004404WS02004405
  WARNING 03: negative offset ignored for Link YS02001904YS02001907
  
  *********************************************************
  NOTE: The summary statistics displayed in this report are
  based on results found at every computational time step,  
  not just on results from each reporting time step.
  *********************************************************
  
  ****************
  Analysis Options
  ****************
  Flow Units ............... LPS
  Process Models:
    Rainfall/Runoff ........ YES
    RDII ................... NO
    Snowmelt ............... NO
    Groundwater ............ NO
    Flow Routing ........... YES
    Ponding Allowed ........ NO
    Water Quality .......... NO
  Infiltration Method ...... HORTON
  Flow Routing Method ...... DYNWAVE
  Surcharge Method ......... EXTRAN
  Starting Date ............ 08/28/2015 08:00:00
  Ending Date .............. 08/28/2015 15:50:00
  Antecedent Dry Days ...... 8.0
  Report Time Step ......... 00:01:00
  Wet Time Step ............ 00:01:00
  Dry Time Step ............ 00:01:00
  Routing Time Step ........ 5.00 sec
  Variable Time Step ....... YES
  Maximum Trials ........... 8
  Number of Threads ........ 4
  Head Tolerance ........... 0.001500 m
  
  
  **************************        Volume         Depth
  Runoff Quantity Continuity     hectare-m            mm
  **************************     ---------       -------
  Total Precipitation ......         2.221         4.862
  Evaporation Loss .........         0.000         0.000
  Infiltration Loss ........         0.552         1.209
  Surface Runoff ...........         0.830         1.818
  Final Storage ............         0.838         1.836
  Continuity Error (%) .....        -0.018
  
  
  **************************        Volume        Volume
  Flow Routing Continuity        hectare-m      10^6 ltr
  **************************     ---------     ---------
  Dry Weather Inflow .......         0.616         6.165
  Wet Weather Inflow .......         0.830         8.297
  Groundwater Inflow .......         0.000         0.000
  RDII Inflow ..............         0.000         0.000
  External Inflow ..........         0.102         1.024
  External Outflow .........         0.939         9.388
  Flooding Loss ............         0.097         0.967
  Evaporation Loss .........         0.000         0.000
  Exfiltration Loss ........         0.000         0.000
  Initial Stored Volume ....         0.076         0.761
  Final Stored Volume ......         0.589         5.889
  Continuity Error (%) .....         0.011
  
  
  *************************
  Highest Continuity Errors
  *************************
  Node HS02004842 (32.87%)
  Node YS02001884 (27.28%)
  Node YS02001774 (23.28%)
  Node YSB1171 (8.79%)
  Node YS02001625 (7.80%)
  
  
  ***************************
  Time-Step Critical Elements
  ***************************
  Link 3 (55.39%)
  Link YS02001793JiankangQianchi (29.87%)
  Link WS02006280WS02006229 (5.47%)
  Link WS02006256WS02006235 (1.18%)
  
  
  ********************************
  Highest Flow Instability Indexes
  ********************************
  Link WS02006113WS02006111 (61)
  Link WS02006111WS02006112 (25)
  Link YS02001629YS02163301 (9)
  Link YS02164001YS02001641 (9)
  Link YS02163601YS02164001 (9)
  
  
  *************************
  Routing Time Step Summary
  *************************
  Minimum Time Step           :     0.38 sec
  Average Time Step           :     2.00 sec
  Maximum Time Step           :     5.00 sec
  Percent in Steady State     :     0.00
  Average Iterations per Step :     2.63
  Percent Not Converging      :     5.47
  
  
  ***************************
  Subcatchment Runoff Summary
  ***************************
  
  ------------------------------------------------------------------------------------------------------------------------------
                            Total      Total      Total      Total     Imperv       Perv      Total       Total     Peak  Runoff
                           Precip      Runon       Evap      Infil     Runoff     Runoff     Runoff      Runoff   Runoff   Coeff
  Subcatchment                 mm         mm         mm         mm         mm         mm         mm    10^6 ltr      LPS
  ------------------------------------------------------------------------------------------------------------------------------
  sub0                       4.86       0.00       0.00       0.34       3.26       0.00       3.26        0.00     1.06   0.670
  sub1                       4.86       0.00       0.00       0.53       3.07       0.00       3.07        0.02     5.41   0.632
  sub2                       4.86       0.00       0.00       1.80       2.16       0.00       2.16        0.02     4.75   0.444
  sub3                       4.86       0.00       0.00       1.80       2.13       0.00       2.13        0.05     9.71   0.437
  sub4                       4.86       0.00       0.00       0.53       2.94       0.00       2.94        0.06    10.83   0.605
  sub5                       4.86       0.00       0.00       0.34       3.21       0.00       3.21        0.04     9.61   0.660
  sub7                       4.86       0.00       0.00       0.44       3.17       0.00       3.17        0.01     3.43   0.652
  sub8                       4.86       0.00       0.00       0.44       3.16       0.00       3.16        0.02     6.02   0.650
  sub9                       4.86       0.00       0.00       0.44       3.16       0.00       3.16        0.02     4.46   0.650
  sub10                      4.86       0.00       0.00       0.39       3.18       0.00       3.18        0.04     9.61   0.655
  sub11                      4.86       0.00       0.00       0.39       3.20       0.00       3.20        0.04    11.35   0.658
  sub12                      4.86       0.00       0.00       0.63       3.04       0.00       3.04        0.03     9.73   0.626
  sub14                      4.86       0.00       0.00       0.44       3.16       0.00       3.16        0.03     8.71   0.649
  sub15                      4.86       0.00       0.00       1.46       2.43       0.00       2.43        0.04    11.80   0.499
  sub16                      4.86       0.00       0.00       1.60       2.34       0.00       2.34        0.02     8.52   0.481
  sub17                      4.86       0.00       0.00       1.56       2.37       0.00       2.37        0.02     6.86   0.488
  sub22                      4.86       0.00       0.00       2.09       1.98       0.00       1.98        0.13    38.87   0.408
  sub23                      4.86       0.00       0.00       1.80       2.19       0.00       2.19        0.10    33.14   0.451
  sub60                      4.86       0.00       0.00       0.58       2.00       0.00       2.00        0.61    53.29   0.411
  sub61                      4.86       0.00       0.00       0.83       2.18       0.00       2.18        0.67    67.47   0.448
  sub62                      4.86       0.00       0.00       0.39       2.32       0.00       2.32        0.71    68.82   0.477
  sub63                      4.86       0.00       0.00       1.41       1.95       0.00       1.95        0.59    63.15   0.401
  sub64                      4.86       0.00       0.00       0.73       1.91       0.00       1.91        0.58    50.55   0.392
  sub65                      4.86       0.00       0.00       0.63       1.93       0.00       1.93        0.59    51.23   0.397
  sub66                      4.86       0.00       0.00       1.41       1.67       0.00       1.67        0.51    46.56   0.344
  sub67                      4.86       0.00       0.00       0.39       2.59       0.00       2.59        0.80    88.93   0.533
  sub68                      4.86       0.00       0.00       0.68       2.33       0.00       2.33        0.72    74.73   0.478
  sub69                      4.86       0.00       0.00       0.73       2.55       0.00       2.55        0.60    74.84   0.525
  sub70                      4.86       2.60       0.00       2.54       3.02       0.00       3.02        0.69    57.41   0.405
  sub71                      4.86       0.00       0.00       0.39       2.21       0.00       2.21        0.52    47.92   0.454
  sub72                      4.86       0.00       0.00       0.34       1.50       0.00       1.50        0.31    21.96   0.308
  sub73                      4.86       2.94       0.00       2.65       2.99       0.00       2.99        0.70    48.96   0.384
  sub74                      4.86       0.00       0.00       3.65       0.77       0.00       0.77        0.31    41.89   0.159
  
  
  ******************
  Node Depth Summary
  ******************
  
  ---------------------------------------------------------------------------------
                                 Average  Maximum  Maximum  Time of Max    Reported
                                   Depth    Depth      HGL   Occurrence   Max Depth
  Node                 Type       Meters   Meters   Meters  days hr:min      Meters
  ---------------------------------------------------------------------------------
  WS02001211           JUNCTION     0.60     0.62     5.45     0  02:48        0.62
  WS02001212           JUNCTION     0.33     0.35     5.41     0  02:47        0.35
  WS02001213           JUNCTION     0.52     0.58     5.34     0  02:45        0.58
  WS02003069           JUNCTION     0.33     0.41     5.00     0  02:44        0.41
  WS02003072           JUNCTION     0.39     0.48     4.85     0  02:45        0.48
  WS02003073           JUNCTION     0.23     0.29     4.35     0  02:46        0.29
  WS02003060           JUNCTION     0.29     0.37     5.30     0  02:44        0.37
  WS02003066           JUNCTION     0.16     0.24     5.79     0  02:42        0.24
  WS02003059           JUNCTION     0.58     0.65     5.33     0  02:45        0.65
  WS02003067           JUNCTION     0.43     0.59     5.91     0  02:42        0.59
  WS02004401           JUNCTION     0.50     0.67     6.67     0  02:37        0.67
  WS02004402           JUNCTION     0.53     0.70     6.66     0  02:37        0.70
  WS02004403           JUNCTION     0.56     0.72     6.65     0  02:37        0.72
  WS02004404           JUNCTION     0.63     0.80     6.65     0  02:37        0.80
  WS02004406           JUNCTION     0.64     0.81     6.64     0  02:37        0.81
  WS02004409           JUNCTION     0.31     0.48     6.25     0  02:40        0.48
  WS02004410           JUNCTION     0.34     0.51     6.23     0  02:41        0.51
  WS02004411           JUNCTION     0.36     0.53     6.21     0  02:41        0.53
  WS02004412           JUNCTION     0.38     0.54     6.18     0  02:41        0.54
  WS02004413           JUNCTION     0.53     0.71     6.18     0  02:41        0.71
  WS02004405           JUNCTION     0.63     0.80     6.65     0  02:37        0.80
  WS02006109           JUNCTION     0.55     0.74     7.35     0  02:31        0.74
  WS02006110           JUNCTION     0.57     0.74     7.32     0  02:30        0.74
  WS02006111           JUNCTION     0.15     0.22     6.92     0  02:30        0.22
  WS02006112           JUNCTION     0.64     0.83     6.72     0  02:36        0.83
  WS02006113           JUNCTION     0.22     0.33     7.23     0  02:30        0.33
  WS02006115           JUNCTION     0.38     0.55     6.69     0  02:36        0.55
  WS02006116           JUNCTION     0.47     0.64     6.68     0  02:37        0.64
  WS02006230           JUNCTION     0.46     0.65     7.40     0  02:31        0.65
  WS02006231           JUNCTION     0.28     0.36     7.49     0  02:34        0.36
  WS02006232           JUNCTION     0.39     0.49     7.52     0  02:35        0.49
  WS02006234           JUNCTION     0.29     0.38     7.54     0  02:35        0.38
  WS02006235           JUNCTION     0.31     0.41     7.57     0  02:35        0.41
  WS02006238           JUNCTION     0.33     0.43     7.57     0  02:35        0.43
  WS02006240           JUNCTION     0.19     0.28     7.57     0  02:35        0.28
  WS02006242           JUNCTION     0.22     0.31     7.58     0  02:35        0.31
  WS02006243           JUNCTION     0.09     0.16     7.58     0  02:34        0.16
  WS02006245           JUNCTION     0.06     0.14     7.63     0  02:23        0.14
  WS02006247           JUNCTION     0.07     0.16     7.66     0  02:24        0.16
  WS02006248           JUNCTION     0.05     0.12     7.71     0  02:23        0.12
  WS02006249           JUNCTION     0.08     0.17     7.76     0  02:22        0.17
  WS02006239           JUNCTION     0.27     0.36     7.57     0  02:35        0.36
  WS02006251           JUNCTION     0.06     0.14     7.81     0  02:21        0.14
  WS02006252           JUNCTION     0.00     0.00     8.24     0  00:00        0.00
  WS02006253           JUNCTION     0.09     0.20     7.84     0  02:21        0.20
  WS02006256           JUNCTION     0.85     1.15     8.09     0  00:00        1.10
  WS02004138           JUNCTION     0.14     0.14     7.39     0  00:00        0.14
  WS02004407           JUNCTION     0.14     0.22     6.53     0  02:38        0.22
  WS02006228           JUNCTION     0.53     0.72     7.37     0  02:30        0.72
  WS02006229           JUNCTION     0.50     0.69     7.39     0  02:31        0.69
  WS02006280           JUNCTION     0.06     0.13     8.40     0  02:21        0.13
  WS02006284           JUNCTION     0.34     0.45     8.85     0  02:21        0.45
  WS02006287           JUNCTION     0.08     0.18     9.14     0  02:21        0.18
  WSF200               JUNCTION     0.14     0.22     5.45     0  02:41        0.22
  HS02004901           JUNCTION     0.11     0.20    10.03     0  02:19        0.20
  HS02004881           JUNCTION     0.01     0.02     9.05     0  02:20        0.02
  HS02004876           JUNCTION     0.04     0.09     9.12     0  02:20        0.09
  HS02004870           JUNCTION     0.01     0.03     9.32     0  02:21        0.03
  HS02004862           JUNCTION     0.01     0.04     9.42     0  02:22        0.04
  HS02004856           JUNCTION     0.07     0.10     9.52     0  02:21        0.10
  HS02004852           JUNCTION     0.01     0.02     9.53     0  02:22        0.02
  HS02004848           JUNCTION     0.01     0.02     9.62     0  02:20        0.02
  HS02004842           JUNCTION     0.31     0.35     9.62     0  02:20        0.35
  HS02004837           JUNCTION     0.03     0.04     9.62     0  02:20        0.04
  HS02004830           JUNCTION     0.04     0.05     9.52     0  02:20        0.05
  HS02004824           JUNCTION     0.02     0.03     9.44     0  02:24        0.03
  HS02004817           JUNCTION     0.40     0.50     9.35     0  02:21        0.50
  HS02004807           JUNCTION     0.11     0.18     9.35     0  02:21        0.18
  HS02004802           JUNCTION     0.14     0.21     9.34     0  02:21        0.21
  HS02004799           JUNCTION     0.10     0.22     9.43     0  02:19        0.22
  HS02004792           JUNCTION     0.03     0.08     9.60     0  02:19        0.08
  HS02004788           JUNCTION     0.02     0.06     9.96     0  02:20        0.06
  HS02004785           JUNCTION     0.04     0.11    10.01     0  02:20        0.11
  HS02004777           JUNCTION     0.13     0.23    10.03     0  02:19        0.23
  HS02004770           JUNCTION     0.10     0.20    10.03     0  02:19        0.20
  HS02004480           JUNCTION     0.07     0.17     9.41     0  02:20        0.17
  HS02004479           JUNCTION     0.10     0.21     9.41     0  02:20        0.21
  HS02004478           JUNCTION     0.05     0.11     9.33     0  02:21        0.11
  YS02001745           JUNCTION     0.20     0.72     8.24     0  07:50        0.72
  YS02001748           JUNCTION     0.44     1.16     8.24     0  07:50        1.16
  YS02001751           JUNCTION     0.60     1.36     8.24     0  07:50        1.36
  YS02001754           JUNCTION     0.82     1.63     8.24     0  07:50        1.63
  YS02001762           JUNCTION     1.00     1.84     8.24     0  07:50        1.84
  YS02001765           JUNCTION     0.96     1.79     8.24     0  07:50        1.79
  YS02001767           JUNCTION     0.93     1.75     8.24     0  07:50        1.75
  YS02001770           JUNCTION     0.92     1.75     8.24     0  07:50        1.75
  YS02001774           JUNCTION     0.98     1.82     8.24     0  07:50        1.82
  YS02001779           JUNCTION     0.76     1.56     8.24     0  07:50        1.56
  YS02001882           JUNCTION     0.25     0.38     7.10     0  02:57        0.38
  YS02001884           JUNCTION     0.34     0.48     7.10     0  02:57        0.48
  YS02001759           JUNCTION     1.03     1.88     8.24     0  07:50        1.88
  YS02001887           JUNCTION     0.41     0.56     7.10     0  02:57        0.56
  YS02001890           JUNCTION     0.44     0.59     7.09     0  02:58        0.59
  YS02001898           JUNCTION     0.22     0.34     7.08     0  02:58        0.34
  YS02001901           JUNCTION     0.33     0.47     7.08     0  02:59        0.47
  YS02001904           JUNCTION     0.31     0.45     7.08     0  02:59        0.45
  YS02001907           JUNCTION     0.62     0.79     7.08     0  02:59        0.79
  YS02001910           JUNCTION     0.42     0.57     7.08     0  02:59        0.57
  YS02001915           JUNCTION     0.24     0.36     7.08     0  02:59        0.36
  YS02001918           JUNCTION     0.06     0.08     7.15     0  03:04        0.08
  YS02001619           JUNCTION     0.57     1.31     8.24     0  07:50        1.31
  YS02001629           JUNCTION     0.87     1.69     8.24     0  07:50        1.69
  YS02001641           JUNCTION     0.97     1.81     8.24     0  07:50        1.81
  YS02001644           JUNCTION     0.98     1.81     8.24     0  07:50        1.81
  YS02001652           JUNCTION     0.83     1.65     8.24     0  07:50        1.65
  YS02001655           JUNCTION     0.63     1.39     8.24     0  07:50        1.39
  YS02001920           JUNCTION     0.15     0.18     7.19     0  03:03        0.18
  YS02001923           JUNCTION     0.05     0.07     7.33     0  03:02        0.07
  YS02001926           JUNCTION     0.12     0.15     7.60     0  03:02        0.15
  YS02001929           JUNCTION     0.05     0.07     7.77     0  03:01        0.07
  YS02001658           JUNCTION     0.40     1.10     8.24     0  07:50        1.10
  YS02001661           JUNCTION     0.28     0.84     8.24     0  07:50        0.84
  YS02001664           JUNCTION     0.09     0.32     8.24     0  07:50        0.32
  YS02001622           JUNCTION     0.58     1.34     8.24     0  07:50        1.34
  YS02001633           JUNCTION     0.96     1.79     8.24     0  07:50        1.79
  YS02001649           JUNCTION     1.01     1.85     8.24     0  07:50        1.85
  YS02001757           JUNCTION     1.13     1.98     8.24     0  07:50        1.98
  YS02001895           JUNCTION     0.22     0.34     7.09     0  02:58        0.34
  YS02001625           JUNCTION     0.84     1.64     8.24     0  07:50        1.64
  YS02163301           JUNCTION     0.90     1.73     8.24     0  07:50        1.73
  YS02163601           JUNCTION     1.01     1.84     8.24     0  07:50        1.84
  YS02164001           JUNCTION     0.95     1.78     8.24     0  07:50        1.78
  YS02001647           JUNCTION     0.82     1.63     8.24     0  07:50        1.63
  YSB1154              JUNCTION     0.23     0.35     9.41     0  02:20        0.35
  YSB6556              JUNCTION     0.13     0.24     9.41     0  02:20        0.24
  YSB1174              JUNCTION     0.19     0.30     9.41     0  02:20        0.30
  YSB1171              JUNCTION     0.38     0.51     9.41     0  02:19        0.51
  YS02006553           JUNCTION     0.62     0.79     7.08     0  02:59        0.79
  YS02006561           JUNCTION     0.12     0.19     6.85     0  02:59        0.19
  YS02006556           JUNCTION     0.60     0.76     7.07     0  02:59        0.76
  YS02006558           JUNCTION     0.64     0.81     7.07     0  02:59        0.81
  YS02001783           JUNCTION     0.21     0.33     6.47     0  02:59        0.33
  YS02001784           JUNCTION     0.24     0.36     6.43     0  02:59        0.36
  YS02001786           JUNCTION     0.21     0.31     6.34     0  03:00        0.31
  YS02001788           JUNCTION     0.15     0.23     6.20     0  03:00        0.23
  YS02001790           JUNCTION     0.18     0.28     5.92     0  03:00        0.28
  YS02001791           JUNCTION     0.12     0.18     5.65     0  03:00        0.18
  YS02001793           JUNCTION     0.08     0.12     4.95     0  03:01        0.12
  WS02004139           JUNCTION     0.54     0.56     5.47     0  02:48        0.56
  WSC                  OUTFALL      0.23     0.29     0.96     0  02:46        0.29
  3                    OUTFALL      0.04     0.13     6.13     0  00:00        0.10
  4                    OUTFALL      0.00     0.00     7.00     0  00:00        0.00
  5                    OUTFALL      0.00     0.00     5.00     0  00:00        0.00
  JK-storage           STORAGE      0.08     3.00     3.80     0  00:00        2.70
  CC-storage           STORAGE      0.46     1.24     8.24     0  07:50        1.24
  XR-storage           STORAGE      7.17     7.72     5.72     0  02:53        7.72
  
  
  *******************
  Node Inflow Summary
  *******************
  
  -------------------------------------------------------------------------------------------------
                                  Maximum  Maximum                  Lateral       Total        Flow
                                  Lateral    Total  Time of Max      Inflow      Inflow     Balance
                                   Inflow   Inflow   Occurrence      Volume      Volume       Error
  Node                 Type           LPS      LPS  days hr:min    10^6 ltr    10^6 ltr     Percent
  -------------------------------------------------------------------------------------------------
  WS02001211           JUNCTION      7.35   197.88     0  03:00       0.207        5.54       0.549
  WS02001212           JUNCTION      0.00   198.13     0  03:00           0        5.51       0.287
  WS02001213           JUNCTION      0.00   198.36     0  03:00           0        5.49       0.324
  WS02003069           JUNCTION      0.32   512.88     0  02:44     0.00902        8.89       0.196
  WS02003072           JUNCTION      0.00   512.86     0  02:45           0        8.88       0.265
  WS02003073           JUNCTION      1.82   514.65     0  02:45      0.0514         8.9       0.276
  WS02003060           JUNCTION     16.53   512.56     0  02:43       0.466         8.9       0.188
  WS02003066           JUNCTION      0.00   300.36     0  02:42           0        2.99       0.073
  WS02003059           JUNCTION      0.00   198.91     0  02:59           0        5.48       0.556
  WS02003067           JUNCTION      0.00   300.35     0  02:42           0           3       0.184
  WS02004401           JUNCTION      0.00   304.36     0  02:35           0        3.14       0.419
  WS02004402           JUNCTION      0.00   303.71     0  02:35           0        3.12       0.416
  WS02004403           JUNCTION      0.00   303.33     0  02:36           0        3.11       0.397
  WS02004404           JUNCTION      0.16   303.28     0  02:36     0.00457         3.1       0.320
  WS02004406           JUNCTION      0.00   303.11     0  02:37           0        3.08       0.792
  WS02004409           JUNCTION      0.00   303.05     0  02:38           0        3.05       0.204
  WS02004410           JUNCTION      0.00   302.02     0  02:39           0        3.05       0.262
  WS02004411           JUNCTION      0.00   301.25     0  02:39           0        3.04       0.297
  WS02004412           JUNCTION      0.00   300.75     0  02:40           0        3.03       0.361
  WS02004413           JUNCTION      0.00   300.46     0  02:41           0        3.02       0.594
  WS02004405           JUNCTION      0.04   303.21     0  02:36     0.00107        3.09       0.480
  WS02006109           JUNCTION      1.23   305.49     0  02:30      0.0347        3.19       0.443
  WS02006110           JUNCTION      0.00   305.51     0  02:31           0        3.17       0.360
  WS02006111           JUNCTION      0.00   309.72     0  02:30           0        3.16       0.061
  WS02006112           JUNCTION      6.86   310.50     0  02:30      0.0203        3.18       0.629
  WS02006113           JUNCTION      0.00   305.53     0  02:31           0        3.16       0.114
  WS02006115           JUNCTION      0.00   307.94     0  02:32           0        3.16       0.305
  WS02006116           JUNCTION      0.00   305.56     0  02:33           0        3.15       0.316
  WS02006230           JUNCTION     10.28   167.74     0  02:39        0.29        2.43       0.354
  WS02006231           JUNCTION      0.00   157.19     0  02:38           0        2.14       0.096
  WS02006232           JUNCTION      0.00   157.02     0  02:38           0        2.15       0.407
  WS02006234           JUNCTION      0.00   156.88     0  02:37           0        2.15       0.027
  WS02006235           JUNCTION      0.00   166.25     0  00:01           0        2.19       0.275
  WS02006238           JUNCTION      0.00    88.92     0  00:00           0       0.154       1.572
  WS02006240           JUNCTION      0.00    40.17     0  00:02           0       0.133       1.211
  WS02006242           JUNCTION      0.00    29.07     0  02:23           0       0.125       1.524
  WS02006243           JUNCTION      0.00    29.72     0  02:24           0       0.117      -0.515
  WS02006245           JUNCTION      0.00    29.51     0  02:24           0       0.116       0.756
  WS02006247           JUNCTION      0.00    29.54     0  02:23           0       0.115       0.099
  WS02006248           JUNCTION      0.00    29.55     0  02:23           0       0.115       0.024
  WS02006249           JUNCTION      0.00    29.60     0  02:21           0       0.116       0.306
  WS02006239           JUNCTION      0.00    71.07     0  00:01           0       0.142       1.777
  WS02006251           JUNCTION      0.08    29.64     0  02:20     0.00217       0.116       0.066
  WS02006252           JUNCTION      0.00     0.00     0  00:00           0           0       0.000 ltr
  WS02006253           JUNCTION      1.06    29.58     0  02:20     0.00264       0.114       0.133
  WS02006256           JUNCTION      0.00   300.00     0  00:00           0        2.56       0.086
  WS02004138           JUNCTION      0.00   190.00     0  00:20           0        5.36       0.074
  WS02004407           JUNCTION      0.00   303.07     0  02:37           0        3.05       0.098
  WS02006228           JUNCTION      0.00   304.40     0  02:29           0        3.16       0.273
  WS02006229           JUNCTION      0.00   304.50     0  02:29           0        3.17       0.249
  WS02006280           JUNCTION      0.00   156.16     0  02:21           0       0.745       0.010
  WS02006284           JUNCTION      0.10   156.16     0  02:21      0.0027       0.746       0.146
  WS02006287           JUNCTION      0.00   156.07     0  02:21           0       0.744       0.096
  WSF200               JUNCTION      0.00   300.35     0  02:42           0        2.99       0.055
  HS02004901           JUNCTION      8.52     8.52     0  02:12      0.0245      0.0246       7.684
  HS02004881           JUNCTION      3.43    28.78     0  02:20      0.0107       0.111       0.054
  HS02004876           JUNCTION      5.41    25.63     0  02:20      0.0204       0.101       0.519
  HS02004870           JUNCTION      6.02    20.35     0  02:20      0.0202      0.0808       0.132
  HS02004862           JUNCTION      4.95    14.75     0  02:21      0.0257      0.0607       0.277
  HS02004856           JUNCTION      4.46     9.84     0  02:20      0.0152      0.0364       4.118
  HS02004852           JUNCTION      0.00     5.68     0  02:20           0      0.0213       0.231
  HS02004848           JUNCTION      9.71     9.71     0  02:23      0.0478      0.0478       0.090
  HS02004842           JUNCTION      0.00     4.47     0  00:03           0      0.0396      48.960
  HS02004837           JUNCTION     15.96    19.76     0  02:19       0.214       0.241       0.339
  HS02004830           JUNCTION      0.15    19.90     0  02:20     0.00423       0.231       0.536
  HS02004824           JUNCTION     10.88    30.64     0  02:23      0.0627       0.293       0.184
  HS02004817           JUNCTION      0.60    31.24     0  02:24      0.0169       0.309       5.700
  HS02004807           JUNCTION     11.35    41.54     0  02:22      0.0371       0.329       1.299
  HS02004802           JUNCTION      0.00    41.66     0  02:23           0       0.325       1.267
  HS02004799           JUNCTION      8.71    97.54     0  02:18        0.03       0.375       0.604
  HS02004792           JUNCTION     39.15    89.07     0  02:18       0.133       0.345       0.120
  HS02004788           JUNCTION     13.47    51.88     0  02:19      0.0888       0.213       0.185
  HS02004785           JUNCTION      0.15    38.86     0  02:19     0.00423       0.126       0.382
  HS02004777           JUNCTION      0.03    39.29     0  02:16    0.000846       0.127       4.258
  HS02004770           JUNCTION     33.14    40.50     0  02:14       0.105       0.127       2.492
  HS02004480           JUNCTION      0.00   114.96     0  02:20           0       0.435       0.162
  HS02004479           JUNCTION      0.00    17.77     0  02:21           0      0.0725       1.015
  HS02004478           JUNCTION      0.00   156.08     0  02:21           0       0.745       0.086
  YS02001745           JUNCTION     53.30    84.30     0  04:33       0.606        0.62       1.667
  YS02001748           JUNCTION      0.04   108.69     0  03:29     0.00127       0.641       3.834
  YS02001751           JUNCTION      0.01   144.54     0  03:28     0.00031       0.604       4.133
  YS02001754           JUNCTION      0.26   118.45     0  03:08     0.00733       0.565       4.595
  YS02001762           JUNCTION      0.00   113.58     0  03:13           0       0.637       3.550
  YS02001765           JUNCTION      0.00   111.46     0  03:14           0        0.64       4.023
  YS02001767           JUNCTION      0.54   115.51     0  03:32      0.0151       0.663       5.696
  YS02001770           JUNCTION     68.97   120.19     0  03:31       0.718       0.753       4.469
  YS02001774           JUNCTION      0.00    72.71     0  03:32           0       0.112      30.347
  YS02001779           JUNCTION      0.01    67.24     0  03:30    0.000141      0.0508      45.278
  YS02001882           JUNCTION      0.00     3.07     0  02:10           0     0.00416      58.986
  YS02001884           JUNCTION      0.00     8.88     0  02:10           0      0.0168      37.519
  YS02001759           JUNCTION     67.51   161.66     0  02:53       0.672        1.28       1.860
  YS02001887           JUNCTION     89.38    89.38     0  02:47       0.812        0.82       0.842
  YS02001890           JUNCTION      0.00    88.93     0  02:50           0       0.799       0.950
  YS02001898           JUNCTION      0.00    88.56     0  02:52           0       0.788       0.251
  YS02001901           JUNCTION      0.00    88.52     0  02:53           0       0.788       0.666
  YS02001904           JUNCTION      0.00    88.18     0  02:54           0       0.788       0.620
  YS02001907           JUNCTION      0.00   160.40     0  03:02           0        1.68       1.302
  YS02001910           JUNCTION      0.00    72.82     0  03:00           0         0.9       1.097
  YS02001915           JUNCTION     47.94    72.57     0  03:01       0.521       0.905       0.466
  YS02001918           JUNCTION      0.00    24.83     0  03:03           0       0.384       0.249
  YS02001619           JUNCTION     46.56    46.56     0  03:01       0.513       0.515       2.562
  YS02001629           JUNCTION      0.00    88.19     0  03:48           0       0.448       7.244
  YS02001641           JUNCTION      0.00   106.14     0  03:30           0       0.921       2.388
  YS02001644           JUNCTION     50.59   147.90     0  03:01       0.581        1.47       1.831
  YS02001652           JUNCTION      0.00   116.15     0  03:24           0        0.53       4.730
  YS02001655           JUNCTION      0.15   139.78     0  03:25     0.00434       0.567       4.635
  YS02001920           JUNCTION      2.87    24.85     0  03:02      0.0809       0.386       0.482
  YS02001923           JUNCTION      0.04    21.98     0  03:02     0.00106       0.306       0.084
  YS02001926           JUNCTION      0.05    22.00     0  03:01     0.00147       0.306       0.610
  YS02001929           JUNCTION     21.96    21.96     0  03:01       0.305       0.305       0.081
  YS02001658           JUNCTION      0.00   107.13     0  04:30           0       0.607       4.123
  YS02001661           JUNCTION      0.00    74.53     0  04:49           0       0.607       3.329
  YS02001664           JUNCTION     63.15    63.15     0  02:49        0.59        0.59       0.612
  YS02001622           JUNCTION      0.00    78.11     0  04:01           0       0.514       6.741
  YS02001633           JUNCTION     51.43   110.88     0  03:12       0.598        0.98       3.391
  YS02001649           JUNCTION      0.00   239.67     0  03:04           0        1.91       2.035
  YS02001757           JUNCTION      0.00   415.37     0  02:49           0        3.62       2.635
  YS02001895           JUNCTION      0.00    88.64     0  02:52           0       0.792       0.433
  YS02001625           JUNCTION      0.00    91.45     0  03:37           0       0.497       8.464
  YS02163301           JUNCTION      0.00    76.84     0  03:25           0       0.408       6.389
  YS02163601           JUNCTION      0.11   116.85     0  03:31      0.0031       0.946       3.363
  YS02164001           JUNCTION      0.00   117.93     0  03:30           0       0.924       2.312
  YS02001647           JUNCTION      0.00   141.52     0  03:21           0        1.43       2.078
  YSB1154              JUNCTION      9.61     9.61     0  02:17      0.0364      0.0378       3.975
  YSB6556              JUNCTION      0.00     9.55     0  02:19           0      0.0388       3.314
  YSB1174              JUNCTION      9.73     9.73     0  02:11      0.0266      0.0276       4.884
  YSB1171              JUNCTION      0.00    17.76     0  02:19           0      0.0719       9.631
  YS02006553           JUNCTION      0.00   160.65     0  03:02           0        1.67       0.847
  YS02006561           JUNCTION      0.00   235.25     0  02:59           0        2.36       0.025
  YS02006556           JUNCTION      0.00   160.87     0  03:03           0        1.67       0.609
  YS02006558           JUNCTION     75.61   235.26     0  02:59       0.739        2.38       0.185
  YS02001783           JUNCTION      0.00   235.24     0  02:59           0        2.36       0.057
  YS02001784           JUNCTION      1.06   236.30     0  02:59      0.0299        2.38       0.096
  YS02001786           JUNCTION      0.06   236.35     0  03:00     0.00159        2.38       0.093
  YS02001788           JUNCTION      0.07   236.41     0  03:00       0.002        2.38       0.053
  YS02001790           JUNCTION      0.15   236.57     0  03:00     0.00437        2.39       0.067
  YS02001791           JUNCTION      0.00   236.56     0  03:00           0        2.39       0.033
  YS02001793           JUNCTION      0.00   236.56     0  03:01           0        2.38       0.015
  WS02004139           JUNCTION      0.32   191.11     0  00:00     0.00905        5.36       0.590
  WSC                  OUTFALL       0.00   514.59     0  02:46           0        8.88       0.000
  3                    OUTFALL       0.00   250.55     0  00:00           0       0.508       0.000
  4                    OUTFALL       0.00     0.00     0  00:00           0           0       0.000 ltr
  5                    OUTFALL       0.00     0.00     0  00:00           0           0       0.000 ltr
  JK-storage           STORAGE       0.00   236.56     0  03:01           0        2.53      -1.102
  CC-storage           STORAGE       0.00   357.09     0  02:59           0        3.52       1.789
  XR-storage           STORAGE     286.77   286.77     0  02:58        6.65        7.25      -0.000
  
  
  **********************
  Node Surcharge Summary
  **********************
  
  Surcharging occurs when water rises above the top of the highest conduit.
  ---------------------------------------------------------------------
                                               Max. Height   Min. Depth
                                   Hours       Above Crown    Below Rim
  Node                 Type      Surcharged         Meters       Meters
  ---------------------------------------------------------------------
  YS02001748           JUNCTION        0.79          0.085        1.105
  YS02001751           JUNCTION        2.61          0.363        0.837
  YS02001754           JUNCTION        3.57          0.584        0.566
  YS02001762           JUNCTION        4.50          0.842        0.308
  YS02001765           JUNCTION        4.31          0.792        0.308
  YS02001767           JUNCTION        4.20          0.753        0.277
  YS02001770           JUNCTION        4.07          0.717        0.203
  YS02001774           JUNCTION        4.42          0.820        0.230
  YS02001779           JUNCTION        3.45          0.556        0.124
  YS02001759           JUNCTION        4.62          0.878        0.332
  YS02001619           JUNCTION        2.36          0.314        0.296
  YS02001629           JUNCTION        2.36          0.313        0.157
  YS02001641           JUNCTION        4.36          0.805        0.295
  YS02001644           JUNCTION        4.36          0.810        0.110
  YS02001652           JUNCTION        3.68          0.616        0.514
  YS02001655           JUNCTION        2.75          0.392        0.808
  YS02001658           JUNCTION        0.92          0.100        1.200
  YS02001622           JUNCTION        2.50          0.339        0.281
  YS02001633           JUNCTION        4.23          0.768        0.292
  YS02001649           JUNCTION        4.53          0.852        0.198
  YS02001757           JUNCTION        5.03          0.981        0.229
  YS02001625           JUNCTION        3.79          0.638        0.142
  YS02163301           JUNCTION        4.09          0.725        0.305
  YS02163601           JUNCTION        4.50          0.844        0.236
  YS02164001           JUNCTION        4.29          0.784        0.316
  YS02001647           JUNCTION        3.78          0.632        0.268
  
  
  *********************
  Node Flooding Summary
  *********************
  
  Flooding refers to all water that overflows a node, whether it ponds or not.
  --------------------------------------------------------------------------
                                                             Total   Maximum
                                 Maximum   Time of Max       Flood    Ponded
                        Hours       Rate    Occurrence      Volume     Depth
  Node                 Flooded       LPS   days hr:min    10^6 ltr    Meters
  --------------------------------------------------------------------------
  XR-storage              4.94     96.77      0  02:58       0.967     0.000
  
  
  **********************
  Storage Volume Summary
  **********************
  
  --------------------------------------------------------------------------------------------------
                         Average     Avg  Evap Exfil       Maximum     Max    Time of Max    Maximum
                          Volume    Pcnt  Pcnt  Pcnt        Volume    Pcnt     Occurrence    Outflow
  Storage Unit           1000 m3    Full  Loss  Loss       1000 m3    Full    days hr:min        LPS
  --------------------------------------------------------------------------------------------------
  JK-storage               0.004       1     0     0         0.151      52       0  00:00     300.00
  CC-storage               1.293       8     0     0         3.458      22       0  07:50       0.00
  XR-storage               0.860      93     0     0         0.926     100       0  02:53     190.00
  
  
  ***********************
  Outfall Loading Summary
  ***********************
  
  -----------------------------------------------------------
                         Flow       Avg       Max       Total
                         Freq      Flow      Flow      Volume
  Outfall Node           Pcnt       LPS       LPS    10^6 ltr
  -----------------------------------------------------------
  WSC                   99.99    350.91    514.59       8.880
  3                     56.37     72.89    250.55       0.508
  4                      0.00      0.00      0.00       0.000
  5                      0.00      0.00      0.00       0.000
  -----------------------------------------------------------
  System                39.09    423.80    612.47       9.388
  
  
  ********************
  Link Flow Summary
  ********************
  
  -----------------------------------------------------------------------------
                                 Maximum  Time of Max   Maximum    Max/    Max/
                                  |Flow|   Occurrence   |Veloc|    Full    Full
  Link                 Type          LPS  days hr:min     m/sec    Flow   Depth
  -----------------------------------------------------------------------------
  WS02003066WSF200     CONDUIT    300.35     0  02:42      2.40    0.05    0.17
  WS02006287WS02006284 CONDUIT    156.06     0  02:21      1.47    0.07    0.19
  WS02006284WS02006280 CONDUIT    156.16     0  02:21      1.72    0.07    0.17
  WS02006280WS02006229 CONDUIT    156.16     0  02:21      2.76    0.03    0.12
  WS02006229WS02006228 CONDUIT    304.40     0  02:29      0.83    1.01    0.87
  WS02006256WS02006235 CONDUIT    166.25     0  00:01      2.58    1.76    1.00
  WS02006253WS02006251 CONDUIT     29.57     0  02:20      0.44    0.09    0.23
  WS02006252WS02006251 CONDUIT      0.00     0  00:00      0.00    0.00    0.00
  WS02006251WS02006249 CONDUIT     29.60     0  02:21      0.48    0.09    0.22
  WS02006249WS02006248 CONDUIT     29.55     0  02:23      0.57    0.16    0.19
  WS02006248WS02006247 CONDUIT     29.54     0  02:23      0.56    0.06    0.20
  WS02006247WS02006245 CONDUIT     29.51     0  02:24      0.51    0.23    0.21
  WS02006245WS02006243 CONDUIT     29.72     0  02:24      0.64    0.09    0.20
  WS02006243WS02006242 CONDUIT     29.07     0  02:23      0.50    0.06    0.31
  WS02006242WS02006240 CONDUIT     29.18     0  00:12      0.64    0.12    0.41
  WS02006240WS02006239 CONDUIT     42.40     0  00:11      0.58    0.13    0.43
  WS02006239WS02006238 CONDUIT     71.07     0  00:01      0.67    0.23    0.55
  WS02006238WS02006235 CONDUIT     95.49     0  00:11      1.25    0.21    0.59
  WS02006235WS02006234 CONDUIT    156.88     0  02:37      0.93    1.66    0.54
  WS02006234WS02006232 CONDUIT    157.02     0  02:38      1.13    0.32    0.62
  WS02006232WS02006231 CONDUIT    157.19     0  02:38      0.66    0.33    0.60
  WS02006231WS02006230 CONDUIT    157.46     0  02:39      1.00    2.39    0.45
  WS02006230WS02006229 CONDUIT    168.66     0  02:39      0.86    3.75    0.93
  WS02006228WS02006109 CONDUIT    304.26     0  02:30      0.75    1.33    0.90
  WS02006116WS02004401 CONDUIT    304.36     0  02:35      0.73    0.42    0.65
  WS02006115WS02006116 CONDUIT    305.56     0  02:33      0.79    0.39    0.56
  WS02006113WS02006111 CONDUIT    309.72     0  02:30      2.03    0.37    0.34
  WS02006112WS02006115 CONDUIT    307.94     0  02:32      0.55    0.18    0.69
  WS02006111WS02006112 CONDUIT    305.91     0  02:30      1.32    0.15    0.63
  WS02006110WS02006113 CONDUIT    305.53     0  02:31      0.85    0.28    0.67
  WS02006109WS02006110 CONDUIT    305.51     0  02:31      0.67    0.59    0.85
  WS02004411WS02004412 CONDUIT    300.75     0  02:40      0.70    0.43    0.54
  WS02004401WS02004402 CONDUIT    303.71     0  02:35      0.77    0.36    0.68
  WS02004413WS02003067 CONDUIT    300.35     0  02:42      0.81    0.13    0.48
  WS02004412WS02004413 CONDUIT    300.46     0  02:41      0.58    0.20    0.63
  WS02004410WS02004411 CONDUIT    301.25     0  02:39      0.74    0.41    0.52
  WS02004409WS02004410 CONDUIT    302.02     0  02:39      0.79    0.39    0.50
  WS02004407WS02004409 CONDUIT    303.05     0  02:38      1.25    0.11    0.35
  WS02004406WS02004407 CONDUIT    303.07     0  02:37      0.74    0.14    0.52
  WS02004405WS02004406 CONDUIT    303.11     0  02:37      0.66    0.60    0.81
  WS02004404WS02004405 CONDUIT    303.17     0  02:36      0.84    2.97    0.80
  WS02004403WS02004404 CONDUIT    303.12     0  02:36      0.74    0.22    0.76
  WS02004402WS02004403 CONDUIT    303.33     0  02:36      0.75    0.44    0.71
  WS02004139WS02001211 CONDUIT    190.53     0  03:00      0.69    0.24    0.45
  WS02004138WS02004139 CONDUIT    190.79     0  00:00      2.94    0.04    0.32
  WS02003067WS02003066 CONDUIT    300.36     0  02:42      0.87    0.10    0.34
  WS02001213WS02003059 CONDUIT    198.91     0  02:59      0.65    0.33    0.60
  WS02001212WS02001213 CONDUIT    198.36     0  03:00      1.03    0.31    0.30
  WS02001211WS02001212 CONDUIT    198.13     0  03:00      0.54    0.15    0.48
  WS02003072WS02003073 CONDUIT    512.83     0  02:45      1.40    1.11    0.36
  WS02003069WS02003072 CONDUIT    512.86     0  02:45      1.34    0.25    0.37
  WS02003060WS02003069 CONDUIT    512.56     0  02:44      1.61    0.20    0.32
  WS02003059WS02003060 CONDUIT    199.70     0  02:59      0.67    0.13    0.51
  HS02004901HS02004770 CONDUIT      7.66     0  02:17      0.04    0.03    0.29
  HS02004876HS02004881 CONDUIT     25.67     0  02:21      0.46    0.27    0.08
  HS02004870HS02004876 CONDUIT     20.33     0  02:21      0.32    0.01    0.09
  HS02004842HS02004848 CONDUIT      4.35     0  02:33      0.02    0.00    0.27
  HS02004837HS02004842 CONDUIT      4.48     0  02:34      0.41    0.00    0.28
  HS02004830HS02004837 CONDUIT     19.75     0  02:20      0.41    0.02    0.07
  HS02004824HS02004830 CONDUIT     19.90     0  02:21      0.45    0.03    0.06
  HS02004817HS02004824 CONDUIT     30.64     0  02:24      0.17    0.01    0.38
  HS02004770HS02004777 CONDUIT     39.26     0  02:16      0.19    0.07    0.30
  HS02004799HS02004480 CONDUIT     97.36     0  02:19      0.51    0.12    0.27
  HS02004792HS02004799 CONDUIT     89.02     0  02:19      0.59    0.05    0.21
  HS02004788HS02004792 CONDUIT     51.84     0  02:20      0.75    0.03    0.10
  HS02004785HS02004788 CONDUIT     38.73     0  02:20      0.45    0.29    0.12
  HS02004777HS02004785 CONDUIT     38.71     0  02:19      0.23    0.05    0.24
  HS02004480HS02004478 CONDUIT    114.92     0  02:20      0.85    0.48    0.19
  HS02004479HS02004480 CONDUIT     17.91     0  02:22      0.16    0.02    0.27
  HS02004862HS02004870 CONDUIT     14.71     0  02:22      0.41    0.02    0.05
  HS02004848HS02004852 CONDUIT      5.68     0  02:20      0.27    0.01    0.03
  HS02004856HS02004862 CONDUIT      9.82     0  02:21      0.30    0.01    0.05
  HS02004852HS02004856 CONDUIT      5.64     0  02:22      0.10    0.01    0.08
  HS02004802HS02004478 CONDUIT     41.88     0  02:24      0.26    0.04    0.23
  HS02004478WS02006287 CONDUIT    156.07     0  02:21      1.16    0.04    0.15
  HS02004817HS02004807 CONDUIT     31.57     0  02:26      0.09    0.02    0.48
  HS02004807HS02004802 CONDUIT     41.66     0  02:23      0.22    0.08    0.27
  YS02001759YS02001757 CONDUIT    153.81     0  03:10      0.20    0.11    1.00
  YS02001762YS02001759 CONDUIT     97.19     0  03:07      0.17    0.11    1.00
  YS02001765YS02001762 CONDUIT    113.58     0  03:13      0.22    0.11    1.00
  YS02001770YS02001767 CONDUIT    114.97     0  03:32      0.33    0.46    1.00
  YS02001774YS02001770 CONDUIT     72.71     0  03:32      0.12    0.05    1.00
  YS02001779YS02001774 CONDUIT     67.32     0  03:31      0.09    0.03    1.00
  YS02001649YS02001757 CONDUIT    223.91     0  03:08      0.29    0.14    1.00
  YS02001767YS02001765 CONDUIT    111.46     0  03:14      0.26    0.14    1.00
  YS02006561YS02001783 CONDUIT    235.24     0  02:59      1.65    0.12    0.33
  YS02001783YS02001784 CONDUIT    235.24     0  02:59      1.12    0.32    0.43
  YS02001784YS02001785 CONDUIT    236.29     0  03:00      1.18    0.55    0.42
  YS02001788YS02001790 CONDUIT    236.41     0  03:00      1.74    0.17    0.31
  YS02001790YS02001791 CONDUIT    236.56     0  03:00      2.00    0.26    0.29
  YS02001791YS02001793 CONDUIT    236.56     0  03:01      3.62    0.10    0.19
  YS02001910YS02001907 CONDUIT     72.85     0  03:01      0.49    0.04    0.67
  YS02001786YS02001788 CONDUIT    236.34     0  03:00      1.60    0.46    0.33
  YS02001915YS02001910 CONDUIT     72.82     0  03:00      0.44    0.04    0.46
  YS02001918YS02001915 CONDUIT     24.82     0  03:04      0.44    0.01    0.22
  YS02001923YS02001920 CONDUIT     21.98     0  03:02      0.38    0.01    0.13
  YS02001926YS02001923 CONDUIT     21.94     0  03:02      0.43    0.03    0.12
  YS02001929YS02001926 CONDUIT     21.95     0  03:01      0.45    0.01    0.11
  YS02001920YS02001918 CONDUIT     24.83     0  03:03      0.40    0.02    0.13
  YS02001629YS02163301 CONDUIT     76.84     0  03:25      0.10    0.09    1.00
  YS02001619YS02001622 CONDUIT     78.11     0  04:01      0.60    0.12    1.00
  YS02001622YS02001625 CONDUIT     78.81     0  04:42      0.21    0.04    1.00
  YS02001625YS02001629 CONDUIT     88.19     0  03:48      0.21    0.04    1.00
  YS02163301YS02001633 CONDUIT     64.51     0  03:17      0.10    0.06    1.00
  YS02163601YS02164001 CONDUIT    117.93     0  03:30      0.15    0.10    1.00
  YS02164001YS02001641 CONDUIT    106.14     0  03:30      0.14    0.14    1.00
  YS02001641YS02001644 CONDUIT    101.29     0  03:24      0.14    0.33    1.00
  YS02001647YS02001649 CONDUIT    189.71     0  03:32      0.25    0.10    1.00
  YS02006553YS02006556 CONDUIT    160.87     0  03:03      0.25    0.14    0.76
  YS02006556YS02006558 CONDUIT    161.03     0  03:03      0.24    0.13    0.79
  YSB6556YSB1171       CONDUIT      9.65     0  02:22      0.05    0.01    0.54
  YS02001907YS02006553 CONDUIT    160.65     0  03:02      0.21    0.19    0.86
  YS02006558YS02006561 CONDUIT    235.25     0  02:59      2.13    0.52    0.41
  YS02001633YS02163601 CONDUIT    116.74     0  03:31      0.15    0.12    1.00
  YS02001644YS02001647 CONDUIT    141.52     0  03:21      0.22    0.08    1.00
  YS02001745YS02001748 CONDUIT    101.53     0  04:46      1.31    0.04    0.86
  YS02001748YS02001751 CONDUIT    144.53     0  03:28      1.01    0.07    1.00
  YS02001751YS02001754 CONDUIT     97.58     0  03:06      0.92    0.05    1.00
  YS02001754YS02001757 CONDUIT    119.33     0  03:06      0.33    0.05    1.00
  YS02001882YS02001884 CONDUIT      3.07     0  02:10      0.06    0.00    0.40
  YS02001884YS02001887 CONDUIT      8.88     0  02:10      0.06    0.01    0.49
  YS02001890YS02001895 CONDUIT     88.64     0  02:52      0.25    0.04    0.46
  YS02001895YS02001898 CONDUIT     88.56     0  02:52      0.46    0.15    0.33
  YS02001898YS02001901 CONDUIT     88.52     0  02:53      0.30    0.06    0.41
  YS02001901YS02001904 CONDUIT     88.18     0  02:54      0.25    0.14    0.46
  YS02001904YS02001907 CONDUIT     88.28     0  02:53      0.17    0.03    0.62
  YS02001887YS02001890 CONDUIT     88.93     0  02:50      0.20    0.15    0.55
  YS02001652YS02001649 CONDUIT    135.90     0  03:22      0.31    0.07    1.00
  YS02001655YS02001652 CONDUIT     93.91     0  03:23      0.99    0.05    1.00
  YS02001658YS02001655 CONDUIT    139.62     0  03:25      1.17    0.06    1.00
  YS02001661YS02001658 CONDUIT    107.13     0  04:30      1.33    0.04    0.88
  YS02001664YS02001661 CONDUIT     63.15     0  02:49      0.97    0.02    0.58
  YSB1154YSB6556       CONDUIT      9.55     0  02:19      0.19    0.02    0.43
  YSB1174YSB1171       CONDUIT      8.95     0  02:13      0.05    0.01    0.54
  YSB1171HS02004479    CONDUIT     17.77     0  02:21      0.54    0.01    0.41
  HS02004881HS02006253 CONDUIT     28.78     0  02:20      1.48    0.01    0.03
  YS02001793JiankangQianchi CONDUIT    236.56     0  03:01     12.17    0.02    0.50
  YS02001757CaochengTiaoxuchi CONDUIT    357.09     0  02:59      0.77    0.16    1.00
  WSF200WS02003060     CONDUIT    300.42     0  02:42      1.40    0.07    0.24
  1                    CONDUIT    514.59     0  02:46      2.77    0.18    0.29
  2                    CONDUIT      0.00     0  00:00      0.00    0.00    0.00
  3                    CONDUIT    250.55     0  00:00      8.26    0.40    0.46
  4                    CONDUIT      0.00     0  00:00      0.00    0.00    0.00
  CC-Pump-1            PUMP         0.00     0  00:00              0.00
  CC-Pump-2            PUMP         0.00     0  00:00              0.00
  JK-Pump-1            PUMP       300.00     0  00:00              1.00
  JK-Pump-2            PUMP       236.56     0  03:01              0.79
  XR-Pump-1            PUMP        95.00     0  00:00              1.00
  XR-Pump-2            PUMP        95.00     0  00:00              1.00
  XR-Pump-3            PUMP         0.00     0  00:00              0.00
  XR-Pump-4            PUMP        95.00     0  00:30              1.00
  
  
  ***************************
  Flow Classification Summary
  ***************************
  
  -------------------------------------------------------------------------------------
                      Adjusted    ---------- Fraction of Time in Flow Class ---------- 
                       /Actual         Up    Down  Sub   Sup   Up    Down  Norm  Inlet 
  Conduit               Length    Dry  Dry   Dry   Crit  Crit  Crit  Crit  Ltd   Ctrl  
  -------------------------------------------------------------------------------------
  WS02003066WSF200        1.00   0.14  0.00  0.00  0.00  0.86  0.00  0.00  0.76  0.00
  WS02006287WS02006284    1.00   0.09  0.03  0.00  0.50  0.38  0.00  0.00  0.78  0.00
  WS02006284WS02006280    1.00   0.11  0.00  0.00  0.00  0.00  0.00  0.89  0.00  0.00
  WS02006280WS02006229    1.00   0.11  0.00  0.00  0.00  0.00  0.00  0.89  0.00  0.00
  WS02006229WS02006228    1.00   0.00  0.00  0.00  0.97  0.00  0.00  0.03  0.00  0.00
  WS02006256WS02006235    1.00   0.00  0.00  0.00  0.99  0.01  0.00  0.00  0.00  0.00
  WS02006253WS02006251    1.00   0.07  0.03  0.00  0.90  0.00  0.01  0.00  0.00  0.00
  WS02006252WS02006251    1.00   1.00  0.00  0.00  0.00  0.00  0.00  0.00  0.00  0.00
  WS02006251WS02006249    1.00   0.00  0.00  0.00  1.00  0.00  0.00  0.00  0.98  0.00
  WS02006249WS02006248    1.00   0.00  0.05  0.00  0.00  0.00  0.95  0.00  0.00  0.00
  WS02006248WS02006247    1.00   0.05  0.00  0.00  0.94  0.00  0.00  0.00  0.87  0.00
  WS02006247WS02006245    1.00   0.05  0.00  0.00  0.95  0.00  0.00  0.00  0.00  0.00
  WS02006245WS02006243    1.00   0.03  0.01  0.00  0.86  0.00  0.00  0.10  0.16  0.00
  WS02006243WS02006242    1.00   0.02  0.01  0.00  0.97  0.00  0.00  0.00  0.50  0.00
  WS02006242WS02006240    1.00   0.01  0.00  0.00  0.99  0.00  0.00  0.00  0.00  0.00
  WS02006240WS02006239    1.00   0.01  0.00  0.00  0.89  0.00  0.00  0.10  0.01  0.00
  WS02006239WS02006238    1.00   0.00  0.00  0.00  1.00  0.00  0.00  0.00  0.01  0.00
  WS02006238WS02006235    1.00   0.00  0.00  0.00  1.00  0.00  0.00  0.00  0.00  0.00
  WS02006235WS02006234    1.00   0.00  0.00  0.00  0.89  0.00  0.11  0.00  0.00  0.00
  WS02006234WS02006232    1.00   0.00  0.00  0.00  0.99  0.01  0.00  0.00  0.17  0.00
  WS02006232WS02006231    1.00   0.00  0.01  0.00  0.98  0.00  0.01  0.00  0.00  0.00
  WS02006231WS02006230    1.00   0.01  0.00  0.00  0.12  0.00  0.87  0.00  0.00  0.00
  WS02006230WS02006229    1.00   0.00  0.00  0.00  0.97  0.00  0.00  0.03  0.01  0.00
  WS02006228WS02006109    1.00   0.00  0.00  0.00  0.99  0.00  0.00  0.01  0.00  0.00
  WS02006116WS02004401    1.00   0.06  0.00  0.00  0.94  0.00  0.00  0.00  0.00  0.00
  WS02006115WS02006116    1.00   0.06  0.00  0.00  0.93  0.00  0.00  0.01  0.00  0.00
  WS02006113WS02006111    1.00   0.05  0.00  0.00  0.00  0.95  0.00  0.00  0.15  0.00
  WS02006112WS02006115    1.00   0.05  0.01  0.00  0.94  0.00  0.00  0.00  0.00  0.00
  WS02006111WS02006112    1.00   0.05  0.00  0.00  0.94  0.00  0.00  0.01  0.98  0.00
  WS02006110WS02006113    1.00   0.03  0.02  0.00  0.95  0.00  0.00  0.00  0.00  0.00
  WS02006109WS02006110    1.00   0.00  0.03  0.00  0.96  0.00  0.02  0.00  0.00  0.00
  WS02004411WS02004412    1.00   0.09  0.00  0.00  0.91  0.00  0.00  0.00  0.00  0.00
  WS02004401WS02004402    1.00   0.06  0.00  0.00  0.94  0.00  0.00  0.00  0.00  0.00
  WS02004413WS02003067    1.00   0.09  0.03  0.00  0.00  0.00  0.87  0.00  0.00  0.00
  WS02004412WS02004413    1.00   0.09  0.00  0.00  0.91  0.00  0.00  0.00  0.03  0.00
  WS02004410WS02004411    1.00   0.09  0.00  0.00  0.91  0.00  0.00  0.00  0.04  0.00
  WS02004409WS02004410    1.00   0.09  0.00  0.00  0.91  0.00  0.00  0.00  0.04  0.00
  WS02004407WS02004409    1.00   0.09  0.00  0.00  0.91  0.00  0.00  0.00  0.89  0.00
  WS02004406WS02004407    1.00   0.00  0.09  0.00  0.91  0.00  0.00  0.00  0.00  0.00
  WS02004405WS02004406    1.00   0.00  0.00  0.00  1.00  0.00  0.00  0.00  0.00  0.00
  WS02004404WS02004405    1.00   0.00  0.00  0.00  1.00  0.00  0.00  0.00  0.00  0.00
  WS02004403WS02004404    1.00   0.00  0.06  0.00  0.94  0.00  0.00  0.00  0.01  0.00
  WS02004402WS02004403    1.00   0.06  0.00  0.00  0.94  0.00  0.00  0.00  0.00  0.00
  WS02004139WS02001211    1.00   0.00  0.00  0.00  0.99  0.00  0.01  0.00  0.00  0.00
  WS02004138WS02004139    1.00   0.00  0.00  0.00  0.98  0.02  0.00  0.00  1.00  0.00
  WS02003067WS02003066    1.00   0.13  0.01  0.00  0.86  0.00  0.00  0.00  0.00  0.00
  WS02001213WS02003059    1.00   0.01  0.01  0.00  0.98  0.00  0.00  0.00  0.00  0.00
  WS02001212WS02001213    1.00   0.01  0.00  0.00  0.20  0.00  0.78  0.00  0.00  0.00
  WS02001211WS02001212    1.00   0.00  0.01  0.00  0.99  0.00  0.00  0.00  0.00  0.00
  WS02003072WS02003073    1.00   0.00  0.00  0.00  0.00  0.00  0.00  1.00  0.00  0.00
  WS02003069WS02003072    1.00   0.00  0.00  0.00  0.99  0.01  0.00  0.00  0.75  0.00
  WS02003060WS02003069    1.00   0.00  0.00  0.00  0.97  0.03  0.00  0.00  0.24  0.00
  WS02003059WS02003060    1.00   0.00  0.00  0.00  0.99  0.01  0.00  0.00  0.01  0.00
  HS02004901HS02004770    1.00   0.10  0.00  0.00  0.90  0.00  0.00  0.00  0.03  0.00
  HS02004876HS02004881    1.00   0.05  0.00  0.00  0.95  0.00  0.00  0.00  0.00  0.00
  HS02004870HS02004876    1.00   0.01  0.00  0.00  0.98  0.00  0.00  0.00  0.95  0.00
  HS02004842HS02004848    1.00   0.00  0.11  0.00  0.89  0.00  0.00  0.00  0.70  0.00
  HS02004837HS02004842    1.00   0.00  0.00  0.00  0.98  0.02  0.00  0.00  0.11  0.00
  HS02004830HS02004837    1.00   0.00  0.00  0.00  1.00  0.00  0.00  0.00  0.99  0.00
  HS02004824HS02004830    1.00   0.00  0.00  0.00  1.00  0.00  0.00  0.00  0.00  0.00
  HS02004817HS02004824    1.00   0.00  0.00  0.00  1.00  0.00  0.00  0.00  1.00  0.00
  HS02004770HS02004777    1.00   0.00  0.10  0.00  0.90  0.00  0.00  0.00  0.07  0.00
  HS02004799HS02004480    1.00   0.01  0.06  0.00  0.87  0.00  0.07  0.00  0.00  0.00
  HS02004792HS02004799    1.00   0.00  0.00  0.00  0.97  0.03  0.00  0.00  0.98  0.00
  HS02004788HS02004792    1.00   0.00  0.00  0.00  0.97  0.03  0.00  0.00  0.98  0.00
  HS02004785HS02004788    1.00   0.00  0.00  0.00  1.00  0.00  0.00  0.00  0.00  0.00
  HS02004777HS02004785    1.00   0.00  0.00  0.00  1.00  0.00  0.00  0.00  0.21  0.00
  HS02004480HS02004478    1.00   0.11  0.00  0.00  0.55  0.00  0.00  0.34  0.00  0.00
  HS02004479HS02004480    1.00   0.06  0.00  0.00  0.94  0.00  0.00  0.00  0.16  0.00
  HS02004862HS02004870    1.00   0.00  0.00  0.00  1.00  0.00  0.00  0.00  0.05  0.00
  HS02004848HS02004852    1.00   0.11  0.00  0.00  0.89  0.00  0.00  0.00  0.70  0.00
  HS02004856HS02004862    1.00   0.00  0.16  0.00  0.84  0.00  0.00  0.00  0.74  0.00
  HS02004852HS02004856    1.00   0.10  0.02  0.00  0.88  0.00  0.00  0.00  0.82  0.00
  HS02004802HS02004478    1.00   0.11  0.01  0.00  0.88  0.00  0.00  0.00  0.00  0.00
  HS02004478WS02006287    1.00   0.13  0.00  0.00  0.84  0.04  0.00  0.00  0.81  0.00
  HS02004817HS02004807    1.00   0.00  0.11  0.00  0.89  0.00  0.00  0.00  0.00  0.00
  HS02004807HS02004802    1.00   0.11  0.00  0.00  0.89  0.00  0.00  0.00  0.01  0.00
  YS02001759YS02001757    1.00   0.00  0.00  0.00  1.00  0.00  0.00  0.00  0.17  0.00
  YS02001762YS02001759    1.00   0.00  0.00  0.00  1.00  0.00  0.00  0.00  0.05  0.00
  YS02001765YS02001762    1.00   0.00  0.00  0.00  1.00  0.00  0.00  0.00  0.23  0.00
  YS02001770YS02001767    1.00   0.00  0.00  0.00  1.00  0.00  0.00  0.00  0.00  0.00
  YS02001774YS02001770    1.00   0.00  0.12  0.00  0.87  0.00  0.00  0.00  0.07  0.00
  YS02001779YS02001774    1.00   0.00  0.00  0.00  1.00  0.00  0.00  0.00  0.27  0.00
  YS02001649YS02001757    1.00   0.00  0.00  0.00  1.00  0.00  0.00  0.00  0.19  0.00
  YS02001767YS02001765    1.00   0.00  0.00  0.00  1.00  0.00  0.00  0.00  0.01  0.00
  YS02006561YS02001783    1.00   0.16  0.00  0.00  0.00  0.84  0.00  0.00  0.73  0.00
  YS02001783YS02001784    1.00   0.00  0.16  0.00  0.84  0.00  0.00  0.00  0.00  0.00
  YS02001784YS02001785    1.00   0.00  0.00  0.00  1.00  0.00  0.00  0.00  0.26  0.00
  YS02001788YS02001790    1.00   0.00  0.00  0.00  0.17  0.83  0.00  0.00  0.85  0.00
  YS02001790YS02001791    1.00   0.00  0.00  0.00  0.04  0.96  0.00  0.00  0.46  0.00
  YS02001791YS02001793    1.00   0.00  0.00  0.00  0.00  1.00  0.00  0.00  0.00  0.00
  YS02001910YS02001907    1.00   0.00  0.00  0.00  0.94  0.00  0.00  0.06  0.13  0.00
  YS02001786YS02001788    1.00   0.00  0.00  0.00  0.17  0.83  0.00  0.00  0.00  0.00
  YS02001915YS02001910    1.00   0.00  0.00  0.00  0.97  0.03  0.00  0.00  0.25  0.00
  YS02001918YS02001915    1.00   0.00  0.01  0.00  0.95  0.03  0.00  0.00  0.81  0.00
  YS02001923YS02001920    1.00   0.00  0.00  0.00  1.00  0.00  0.00  0.00  1.00  0.00
  YS02001926YS02001923    1.00   0.00  0.08  0.00  0.00  0.00  0.92  0.00  0.00  0.00
  YS02001929YS02001926    1.00   0.00  0.10  0.00  0.90  0.00  0.00  0.00  0.86  0.00
  YS02001920YS02001918    1.00   0.00  0.01  0.00  0.99  0.00  0.00  0.00  0.00  0.00
  YS02001629YS02163301    1.00   0.14  0.01  0.00  0.85  0.00  0.00  0.00  0.00  0.00
  YS02001619YS02001622    1.00   0.10  0.00  0.00  0.90  0.00  0.00  0.00  0.00  0.00
  YS02001622YS02001625    1.00   0.10  0.00  0.00  0.90  0.00  0.00  0.00  0.13  0.00
  YS02001625YS02001629    1.00   0.11  0.06  0.00  0.80  0.00  0.03  0.00  0.00  0.00
  YS02163301YS02001633    1.00   0.00  0.14  0.00  0.86  0.00  0.00  0.00  0.00  0.00
  YS02163601YS02164001    1.00   0.00  0.08  0.00  0.92  0.00  0.00  0.00  0.00  0.00
  YS02164001YS02001641    1.00   0.02  0.06  0.00  0.92  0.00  0.00  0.00  0.07  0.00
  YS02001641YS02001644    1.00   0.00  0.02  0.00  0.98  0.00  0.00  0.00  0.00  0.00
  YS02001647YS02001649    1.00   0.00  0.16  0.00  0.84  0.00  0.00  0.00  0.01  0.00
  YS02006553YS02006556    1.00   0.03  0.00  0.00  0.97  0.00  0.00  0.00  0.03  0.00
  YS02006556YS02006558    1.00   0.00  0.01  0.00  0.99  0.00  0.00  0.00  0.00  0.00
  YSB6556YSB1171          1.00   0.07  0.03  0.00  0.90  0.00  0.00  0.00  0.00  0.00
  YS02001907YS02006553    1.00   0.01  0.05  0.00  0.94  0.00  0.00  0.00  0.00  0.00
  YS02006558YS02006561    1.00   0.16  0.00  0.00  0.00  0.84  0.00  0.00  0.72  0.00
  YS02001633YS02163601    1.00   0.00  0.02  0.00  0.98  0.00  0.00  0.00  0.20  0.00
  YS02001644YS02001647    1.00   0.00  0.16  0.00  0.84  0.00  0.00  0.00  0.00  0.00
  YS02001745YS02001748    1.00   0.00  0.00  0.00  0.63  0.06  0.00  0.30  0.16  0.00
  YS02001748YS02001751    1.00   0.00  0.00  0.00  0.95  0.05  0.00  0.00  0.26  0.00
  YS02001751YS02001754    1.00   0.00  0.00  0.00  0.83  0.00  0.00  0.17  0.02  0.00
  YS02001754YS02001757    1.00   0.00  0.00  0.00  0.98  0.02  0.00  0.00  0.27  0.00
  YS02001882YS02001884    1.00   0.14  0.01  0.00  0.86  0.00  0.00  0.00  0.00  0.00
  YS02001884YS02001887    1.00   0.07  0.02  0.00  0.90  0.00  0.00  0.00  0.00  0.00
  YS02001890YS02001895    1.00   0.01  0.14  0.00  0.85  0.00  0.00  0.00  0.00  0.00
  YS02001895YS02001898    1.00   0.15  0.00  0.00  0.83  0.00  0.01  0.00  0.00  0.00
  YS02001898YS02001901    1.00   0.14  0.01  0.00  0.85  0.00  0.00  0.00  0.02  0.00
  YS02001901YS02001904    1.00   0.14  0.00  0.00  0.86  0.00  0.00  0.00  0.00  0.00
  YS02001904YS02001907    1.00   0.01  0.14  0.00  0.86  0.00  0.00  0.00  0.00  0.00
  YS02001887YS02001890    1.00   0.00  0.01  0.00  0.94  0.00  0.06  0.00  0.00  0.00
  YS02001652YS02001649    1.00   0.00  0.00  0.00  1.00  0.00  0.00  0.00  0.26  0.00
  YS02001655YS02001652    1.00   0.00  0.00  0.00  0.83  0.00  0.00  0.17  0.02  0.00
  YS02001658YS02001655    1.00   0.00  0.13  0.00  0.82  0.05  0.00  0.00  0.14  0.00
  YS02001661YS02001658    1.00   0.13  0.00  0.00  0.63  0.24  0.00  0.00  0.22  0.00
  YS02001664YS02001661    1.00   0.10  0.00  0.00  0.86  0.04  0.00  0.00  0.59  0.00
  YSB1154YSB6556          1.00   0.10  0.00  0.00  0.90  0.00  0.00  0.00  0.02  0.00
  YSB1174YSB1171          1.00   0.07  0.02  0.00  0.91  0.00  0.00  0.00  0.00  0.00
  YSB1171HS02004479       1.00   0.07  0.00  0.00  0.93  0.00  0.00  0.01  0.13  0.00
  HS02004881HS02006253    1.00   0.07  0.00  0.00  0.00  0.00  0.00  0.93  0.00  0.00
  YS02001793JiankangQianchi    1.00   0.00  0.00  0.00  0.05  0.94  0.00  0.00  0.02  0.00
  YS02001757CaochengTiaoxuchi    1.00   0.00  0.19  0.00  0.81  0.00  0.00  0.00  0.00  0.00
  WSF200WS02003060        1.00   0.00  0.14  0.00  0.86  0.00  0.00  0.00  0.69  0.00
  1                       1.00   0.00  0.00  0.00  0.00  1.00  0.00  0.00  0.19  0.00
  2                       1.00   1.00  0.00  0.00  0.00  0.00  0.00  0.00  0.00  0.00
  3                       1.00   0.44  0.00  0.00  0.00  0.56  0.00  0.00  0.28  0.00
  4                       1.00   1.00  0.00  0.00  0.00  0.00  0.00  0.00  0.00  0.00
  
  
  *************************
  Conduit Surcharge Summary
  *************************
  
  ----------------------------------------------------------------------------
                                                           Hours        Hours 
                         --------- Hours Full --------   Above Full   Capacity
  Conduit                Both Ends  Upstream  Dnstream   Normal Flow   Limited
  ----------------------------------------------------------------------------
  WS02006229WS02006228        0.01      0.01      0.01      0.08         0.01
  WS02006256WS02006235        3.38      3.39      6.29      3.08         0.01
  WS02006235WS02006234        0.01      0.01      0.01      3.12         0.01
  WS02006231WS02006230        0.01      0.01      0.01      4.35         0.01
  WS02006230WS02006229        0.01      0.01      0.01      5.74         0.01
  WS02006228WS02006109        0.01      0.01      0.01      0.79         0.01
  WS02006111WS02006112        0.01      0.01      0.24      0.01         0.01
  WS02004404WS02004405        0.01      0.01      0.01      3.78         0.01
  WS02003072WS02003073        0.01      0.01      0.01      0.62         0.01
  YS02001759YS02001757        4.62      4.62      5.03      0.01         0.01
  YS02001762YS02001759        4.50      4.50      4.62      0.01         0.01
  YS02001765YS02001762        4.31      4.31      4.50      0.01         0.01
  YS02001770YS02001767        4.16      4.17      4.19      0.01         0.27
  YS02001774YS02001770        4.07      4.07      4.42      0.01         0.01
  YS02001779YS02001774        3.45      3.45      4.42      0.01         0.01
  YS02001649YS02001757        4.53      4.53      5.03      0.01         0.01
  YS02001767YS02001765        4.19      4.19      4.31      0.01         0.01
  YS02001629YS02163301        4.00      4.00      4.09      0.01         0.01
  YS02001619YS02001622        2.36      2.36      2.50      0.01         0.01
  YS02001622YS02001625        2.50      2.50      3.79      0.01         0.01
  YS02001625YS02001629        2.36      2.36      3.79      0.01         0.01
  YS02163301YS02001633        4.09      4.09      4.33      0.01         0.01
  YS02163601YS02164001        4.29      4.29      4.50      0.01         0.01
  YS02164001YS02001641        4.29      4.29      4.36      0.01         0.01
  YS02001641YS02001644        4.35      4.36      4.36      0.01         0.25
  YS02001647YS02001649        3.78      3.78      4.53      0.01         0.01
  YS02001633YS02163601        4.23      4.23      4.50      0.01         0.01
  YS02001644YS02001647        3.78      3.78      4.36      0.01         0.01
  YS02001745YS02001748        0.01      0.01      0.79      0.01         0.01
  YS02001748YS02001751        1.42      1.42      2.61      0.01         0.01
  YS02001751YS02001754        2.61      2.61      3.57      0.01         0.01
  YS02001754YS02001757        3.78      3.78      5.03      0.01         0.01
  YS02001652YS02001649        3.82      3.82      4.53      0.01         0.01
  YS02001655YS02001652        2.75      2.75      3.68      0.01         0.01
  YS02001658YS02001655        0.92      0.92      2.75      0.01         0.01
  YS02001661YS02001658        0.01      0.01      0.92      0.01         0.01
  YS02001793JiankangQianchi        0.01      0.01      0.09      0.01         0.01
  YS02001757CaochengTiaoxuchi        1.93      1.93      5.03      0.01         0.01
  
  
  ***************
  Pumping Summary
  ***************
  
  ---------------------------------------------------------------------------------------------------------
                                                  Min       Avg       Max     Total     Power    % Time Off
                        Percent   Number of      Flow      Flow      Flow    Volume     Usage    Pump Curve
  Pump                 Utilized   Start-Ups       LPS       LPS       LPS  10^6 ltr     Kw-hr    Low   High
  ---------------------------------------------------------------------------------------------------------
  CC-Pump-1                0.00           0      0.00      0.00      0.00     0.000      0.00    0.0    0.0
  CC-Pump-2                0.00           0      0.00      0.00      0.00     0.000      0.00    0.0    0.0
  JK-Pump-1                6.40           1      0.00    223.80    300.00     0.180      2.81    0.0    0.0
  JK-Pump-2               95.73           1      0.00    133.65    236.56     2.383     45.75    0.0    0.0
  XR-Pump-1                6.40           1      0.00     89.60     95.00     0.143      1.68    0.0    0.0
  XR-Pump-2              100.00           1      0.00     95.00     95.00     2.679     17.64    0.0    0.0
  XR-Pump-3                0.00           0      0.00      0.00      0.00     0.000      0.00    0.0    0.0
  XR-Pump-4               95.73           1      0.00     94.57     95.00     2.536     15.96    0.0    0.0
  

  Analysis begun on:  Thu Jan  6 00:53:04 2022
  Analysis ended on:  Thu Jan  6 00:53:05 2022
  Total elapsed time: 00:00:01