
  EPA STORM WATER MANAGEMENT MODEL - VERSION 5.1 (Build 5.3.0.dev0)
  --------------------------------------------------------------

  WARNING 04: minimum elevation drop used for Conduit WS02004404WS02004405
  WARNING 03: negative offset ignored for Link YS02001904YS02001907
  
  *********************************************************
  NOTE: The summary statistics displayed in this report are
  based on results found at every computational time step,  
  not just on results from each reporting time step.
  *********************************************************
  
  ****************
  Analysis Options
  ****************
  Flow Units ............... LPS
  Process Models:
    Rainfall/Runoff ........ YES
    RDII ................... NO
    Snowmelt ............... NO
    Groundwater ............ NO
    Flow Routing ........... YES
    Ponding Allowed ........ NO
    Water Quality .......... NO
  Infiltration Method ...... HORTON
  Flow Routing Method ...... DYNWAVE
  Surcharge Method ......... EXTRAN
  Starting Date ............ 08/28/2015 08:00:00
  Ending Date .............. 08/28/2015 15:50:00
  Antecedent Dry Days ...... 8.0
  Report Time Step ......... 00:01:00
  Wet Time Step ............ 00:01:00
  Dry Time Step ............ 00:01:00
  Routing Time Step ........ 5.00 sec
  Variable Time Step ....... YES
  Maximum Trials ........... 8
  Number of Threads ........ 4
  Head Tolerance ........... 0.001500 m
  
  
  **************************        Volume         Depth
  Runoff Quantity Continuity     hectare-m            mm
  **************************     ---------       -------
  Total Precipitation ......         1.841         4.030
  Evaporation Loss .........         0.000         0.000
  Infiltration Loss ........         0.453         0.992
  Surface Runoff ...........         0.594         1.301
  Final Storage ............         0.794         1.738
  Continuity Error (%) .....        -0.017
  
  
  **************************        Volume        Volume
  Flow Routing Continuity        hectare-m      10^6 ltr
  **************************     ---------     ---------
  Dry Weather Inflow .......         0.616         6.165
  Wet Weather Inflow .......         0.594         5.937
  Groundwater Inflow .......         0.000         0.000
  RDII Inflow ..............         0.000         0.000
  External Inflow ..........         0.102         1.024
  External Outflow .........         0.858         8.579
  Flooding Loss ............         0.066         0.665
  Evaporation Loss .........         0.000         0.000
  Exfiltration Loss ........         0.000         0.000
  Initial Stored Volume ....         0.076         0.761
  Final Stored Volume ......         0.465         4.652
  Continuity Error (%) .....        -0.074
  
  
  *************************
  Highest Continuity Errors
  *************************
  Node HS02004842 (37.79%)
  Node YS02001884 (31.92%)
  Node YS02001774 (27.17%)
  Node YS02001625 (11.83%)
  Node YSB1171 (11.11%)
  
  
  ***************************
  Time-Step Critical Elements
  ***************************
  Link YS02001793JiankangQianchi (44.44%)
  Link 3 (33.15%)
  Link WS02006280WS02006229 (9.85%)
  Link WS02006256WS02006235 (1.49%)
  Link WS02006238WS02006235 (1.12%)
  
  
  ********************************
  Highest Flow Instability Indexes
  ********************************
  Link WS02006113WS02006111 (54)
  Link WS02006111WS02006112 (14)
  Link YS02001767YS02001765 (10)
  Link YS02001762YS02001759 (9)
  Link YS02001765YS02001762 (9)
  
  
  *************************
  Routing Time Step Summary
  *************************
  Minimum Time Step           :     0.50 sec
  Average Time Step           :     2.59 sec
  Maximum Time Step           :     5.00 sec
  Percent in Steady State     :    -0.00
  Average Iterations per Step :     2.12
  Percent Not Converging      :     0.30
  
  
  ***************************
  Subcatchment Runoff Summary
  ***************************
  
  ------------------------------------------------------------------------------------------------------------------------------
                            Total      Total      Total      Total     Imperv       Perv      Total       Total     Peak  Runoff
                           Precip      Runon       Evap      Infil     Runoff     Runoff     Runoff      Runoff   Runoff   Coeff
  Subcatchment                 mm         mm         mm         mm         mm         mm         mm    10^6 ltr      LPS
  ------------------------------------------------------------------------------------------------------------------------------
  sub0                       4.03       0.00       0.00       0.28       2.48       0.00       2.48        0.00     0.64   0.616
  sub1                       4.03       0.00       0.00       0.44       2.33       0.00       2.33        0.02     3.44   0.579
  sub2                       4.03       0.00       0.00       1.49       1.63       0.00       1.63        0.02     3.06   0.406
  sub3                       4.03       0.00       0.00       1.49       1.60       0.00       1.60        0.04     6.36   0.398
  sub4                       4.03       0.00       0.00       0.44       2.21       0.00       2.21        0.05     7.20   0.548
  sub5                       4.03       0.00       0.00       0.28       2.44       0.00       2.44        0.03     6.12   0.605
  sub7                       4.03       0.00       0.00       0.36       2.41       0.00       2.41        0.01     2.13   0.599
  sub8                       4.03       0.00       0.00       0.36       2.40       0.00       2.40        0.02     3.78   0.597
  sub9                       4.03       0.00       0.00       0.36       2.40       0.00       2.40        0.01     2.80   0.596
  sub10                      4.03       0.00       0.00       0.32       2.42       0.00       2.42        0.03     6.09   0.600
  sub11                      4.03       0.00       0.00       0.32       2.43       0.00       2.43        0.03     7.10   0.604
  sub12                      4.03       0.00       0.00       0.52       2.32       0.00       2.32        0.02     5.96   0.575
  sub14                      4.03       0.00       0.00       0.36       2.40       0.00       2.40        0.02     5.48   0.596
  sub15                      4.03       0.00       0.00       1.21       1.84       0.00       1.84        0.03     7.45   0.457
  sub16                      4.03       0.00       0.00       1.33       1.78       0.00       1.78        0.02     5.25   0.442
  sub17                      4.03       0.00       0.00       1.29       1.81       0.00       1.81        0.02     4.25   0.448
  sub22                      4.03       0.00       0.00       1.73       1.51       0.00       1.51        0.10    24.28   0.374
  sub23                      4.03       0.00       0.00       1.49       1.67       0.00       1.67        0.08    20.65   0.414
  sub60                      4.03       0.00       0.00       0.48       1.41       0.00       1.41        0.43    36.57   0.350
  sub61                      4.03       0.00       0.00       0.69       1.56       0.00       1.56        0.48    47.19   0.388
  sub62                      4.03       0.00       0.00       0.32       1.66       0.00       1.66        0.51    47.93   0.412
  sub63                      4.03       0.00       0.00       1.17       1.41       0.00       1.41        0.43    44.25   0.350
  sub64                      4.03       0.00       0.00       0.60       1.34       0.00       1.34        0.41    34.64   0.334
  sub65                      4.03       0.00       0.00       0.52       1.36       0.00       1.36        0.42    35.05   0.337
  sub66                      4.03       0.00       0.00       1.17       1.19       0.00       1.19        0.36    32.10   0.295
  sub67                      4.03       0.00       0.00       0.32       1.88       0.00       1.88        0.58    62.22   0.468
  sub68                      4.03       0.00       0.00       0.56       1.68       0.00       1.68        0.52    52.35   0.417
  sub69                      4.03       0.00       0.00       0.60       1.88       0.00       1.88        0.44    51.68   0.465
  sub70                      4.03       1.91       0.00       2.02       2.13       0.00       2.13        0.49    37.56   0.358
  sub71                      4.03       0.00       0.00       0.32       1.57       0.00       1.57        0.37    33.12   0.389
  sub72                      4.03       0.00       0.00       0.28       1.03       0.00       1.03        0.21    14.68   0.255
  sub73                      4.03       2.07       0.00       2.07       2.05       0.00       2.05        0.48    32.13   0.336
  sub74                      4.03       0.00       0.00       3.02       0.57       0.00       0.57        0.23    28.67   0.142
  
  
  ******************
  Node Depth Summary
  ******************
  
  ---------------------------------------------------------------------------------
                                 Average  Maximum  Maximum  Time of Max    Reported
                                   Depth    Depth      HGL   Occurrence   Max Depth
  Node                 Type       Meters   Meters   Meters  days hr:min      Meters
  ---------------------------------------------------------------------------------
  WS02001211           JUNCTION     0.60     0.61     5.45     0  03:00        0.61
  WS02001212           JUNCTION     0.33     0.34     5.40     0  02:59        0.34
  WS02001213           JUNCTION     0.51     0.57     5.33     0  02:59        0.57
  WS02003069           JUNCTION     0.30     0.39     4.97     0  02:58        0.39
  WS02003072           JUNCTION     0.37     0.46     4.83     0  02:59        0.46
  WS02003073           JUNCTION     0.21     0.27     4.34     0  03:00        0.27
  WS02003060           JUNCTION     0.28     0.35     5.28     0  02:58        0.35
  WS02003066           JUNCTION     0.14     0.22     5.77     0  02:56        0.22
  WS02003059           JUNCTION     0.56     0.63     5.32     0  02:58        0.63
  WS02003067           JUNCTION     0.38     0.55     5.87     0  02:56        0.55
  WS02004401           JUNCTION     0.45     0.62     6.62     0  02:51        0.62
  WS02004402           JUNCTION     0.49     0.65     6.61     0  02:51        0.65
  WS02004403           JUNCTION     0.51     0.68     6.61     0  02:51        0.68
  WS02004404           JUNCTION     0.59     0.76     6.61     0  02:51        0.76
  WS02004406           JUNCTION     0.60     0.77     6.60     0  02:52        0.77
  WS02004409           JUNCTION     0.26     0.43     6.20     0  02:55        0.43
  WS02004410           JUNCTION     0.29     0.46     6.18     0  02:55        0.46
  WS02004411           JUNCTION     0.31     0.48     6.16     0  02:55        0.48
  WS02004412           JUNCTION     0.34     0.50     6.14     0  02:56        0.50
  WS02004413           JUNCTION     0.48     0.67     6.14     0  02:56        0.67
  WS02004405           JUNCTION     0.58     0.75     6.60     0  02:51        0.75
  WS02006109           JUNCTION     0.50     0.68     7.30     0  02:45        0.68
  WS02006110           JUNCTION     0.52     0.69     7.27     0  02:45        0.69
  WS02006111           JUNCTION     0.13     0.19     6.90     0  02:46        0.19
  WS02006112           JUNCTION     0.59     0.78     6.66     0  02:50        0.78
  WS02006113           JUNCTION     0.19     0.30     7.19     0  02:45        0.30
  WS02006115           JUNCTION     0.34     0.50     6.64     0  02:50        0.50
  WS02006116           JUNCTION     0.42     0.59     6.63     0  02:51        0.59
  WS02006230           JUNCTION     0.41     0.59     7.33     0  02:44        0.59
  WS02006231           JUNCTION     0.25     0.34     7.47     0  02:54        0.34
  WS02006232           JUNCTION     0.35     0.47     7.51     0  02:53        0.47
  WS02006234           JUNCTION     0.25     0.36     7.52     0  02:53        0.36
  WS02006235           JUNCTION     0.28     0.39     7.55     0  02:53        0.39
  WS02006238           JUNCTION     0.30     0.41     7.55     0  02:53        0.41
  WS02006240           JUNCTION     0.16     0.26     7.55     0  02:52        0.26
  WS02006242           JUNCTION     0.18     0.28     7.55     0  02:51        0.28
  WS02006243           JUNCTION     0.06     0.13     7.55     0  02:50        0.13
  WS02006245           JUNCTION     0.05     0.11     7.60     0  02:33        0.11
  WS02006247           JUNCTION     0.06     0.13     7.63     0  02:33        0.13
  WS02006248           JUNCTION     0.04     0.10     7.68     0  02:32        0.10
  WS02006249           JUNCTION     0.06     0.14     7.74     0  02:32        0.14
  WS02006239           JUNCTION     0.23     0.34     7.55     0  02:52        0.34
  WS02006251           JUNCTION     0.04     0.11     7.78     0  02:31        0.11
  WS02006252           JUNCTION     0.00     0.00     8.24     0  00:00        0.00
  WS02006253           JUNCTION     0.08     0.16     7.81     0  02:30        0.16
  WS02006256           JUNCTION     0.74     1.15     8.09     0  00:00        1.10
  WS02004138           JUNCTION     0.14     0.14     7.39     0  00:00        0.14
  WS02004407           JUNCTION     0.12     0.20     6.51     0  02:52        0.20
  WS02006228           JUNCTION     0.48     0.66     7.31     0  02:45        0.66
  WS02006229           JUNCTION     0.45     0.63     7.32     0  02:44        0.63
  WS02006280           JUNCTION     0.05     0.10     8.37     0  02:30        0.10
  WS02006284           JUNCTION     0.32     0.42     8.82     0  02:29        0.42
  WS02006287           JUNCTION     0.07     0.15     9.10     0  02:29        0.15
  WSF200               JUNCTION     0.11     0.19     5.42     0  02:57        0.19
  HS02004901           JUNCTION     0.09     0.18    10.00     0  02:27        0.18
  HS02004881           JUNCTION     0.00     0.01     9.04     0  02:29        0.01
  HS02004876           JUNCTION     0.03     0.08     9.11     0  02:30        0.08
  HS02004870           JUNCTION     0.01     0.02     9.31     0  02:29        0.02
  HS02004862           JUNCTION     0.01     0.03     9.41     0  02:31        0.03
  HS02004856           JUNCTION     0.06     0.09     9.52     0  02:30        0.09
  HS02004852           JUNCTION     0.00     0.02     9.53     0  02:31        0.02
  HS02004848           JUNCTION     0.00     0.02     9.62     0  02:28        0.02
  HS02004842           JUNCTION     0.31     0.35     9.62     0  02:28        0.35
  HS02004837           JUNCTION     0.02     0.04     9.62     0  02:28        0.04
  HS02004830           JUNCTION     0.03     0.05     9.52     0  02:29        0.05
  HS02004824           JUNCTION     0.02     0.03     9.43     0  02:33        0.03
  HS02004817           JUNCTION     0.38     0.48     9.33     0  02:30        0.48
  HS02004807           JUNCTION     0.10     0.15     9.32     0  02:30        0.15
  HS02004802           JUNCTION     0.13     0.19     9.32     0  02:30        0.19
  HS02004799           JUNCTION     0.09     0.18     9.39     0  02:27        0.18
  HS02004792           JUNCTION     0.02     0.06     9.58     0  02:26        0.06
  HS02004788           JUNCTION     0.02     0.05     9.94     0  02:28        0.05
  HS02004785           JUNCTION     0.03     0.09     9.99     0  02:28        0.09
  HS02004777           JUNCTION     0.12     0.20    10.00     0  02:28        0.20
  HS02004770           JUNCTION     0.09     0.17    10.00     0  02:27        0.17
  HS02004480           JUNCTION     0.06     0.14     9.38     0  02:28        0.14
  HS02004479           JUNCTION     0.09     0.17     9.38     0  02:28        0.17
  HS02004478           JUNCTION     0.04     0.09     9.31     0  02:29        0.09
  YS02001745           JUNCTION     0.09     0.31     7.83     0  07:50        0.31
  YS02001748           JUNCTION     0.28     0.75     7.82     0  07:49        0.74
  YS02001751           JUNCTION     0.42     0.95     7.82     0  07:49        0.94
  YS02001754           JUNCTION     0.62     1.22     7.82     0  07:49        1.21
  YS02001762           JUNCTION     0.79     1.42     7.82     0  07:49        1.42
  YS02001765           JUNCTION     0.75     1.37     7.82     0  07:49        1.37
  YS02001767           JUNCTION     0.72     1.33     7.82     0  07:50        1.33
  YS02001770           JUNCTION     0.71     1.33     7.82     0  07:50        1.33
  YS02001774           JUNCTION     0.77     1.40     7.82     0  07:50        1.40
  YS02001779           JUNCTION     0.56     1.14     7.82     0  07:50        1.14
  YS02001882           JUNCTION     0.20     0.32     7.04     0  03:02        0.32
  YS02001884           JUNCTION     0.28     0.42     7.04     0  03:02        0.42
  YS02001759           JUNCTION     0.82     1.46     7.82     0  07:49        1.45
  YS02001887           JUNCTION     0.35     0.50     7.04     0  03:02        0.50
  YS02001890           JUNCTION     0.38     0.53     7.03     0  03:02        0.53
  YS02001898           JUNCTION     0.17     0.28     7.02     0  03:02        0.28
  YS02001901           JUNCTION     0.27     0.41     7.02     0  03:03        0.41
  YS02001904           JUNCTION     0.25     0.39     7.02     0  03:03        0.39
  YS02001907           JUNCTION     0.55     0.73     7.02     0  03:02        0.73
  YS02001910           JUNCTION     0.36     0.51     7.02     0  03:03        0.51
  YS02001915           JUNCTION     0.19     0.30     7.02     0  03:03        0.30
  YS02001918           JUNCTION     0.05     0.07     7.14     0  03:05        0.07
  YS02001619           JUNCTION     0.38     0.89     7.82     0  07:49        0.89
  YS02001629           JUNCTION     0.67     1.27     7.82     0  07:49        1.27
  YS02001641           JUNCTION     0.76     1.39     7.82     0  07:49        1.38
  YS02001644           JUNCTION     0.77     1.39     7.82     0  07:49        1.39
  YS02001652           JUNCTION     0.63     1.23     7.82     0  07:49        1.23
  YS02001655           JUNCTION     0.44     0.97     7.82     0  07:50        0.97
  YS02001920           JUNCTION     0.14     0.16     7.17     0  03:04        0.16
  YS02001923           JUNCTION     0.04     0.06     7.32     0  03:03        0.06
  YS02001926           JUNCTION     0.10     0.13     7.58     0  03:03        0.13
  YS02001929           JUNCTION     0.04     0.06     7.75     0  03:01        0.06
  YS02001658           JUNCTION     0.24     0.68     7.82     0  07:50        0.68
  YS02001661           JUNCTION     0.16     0.42     7.82     0  07:49        0.41
  YS02001664           JUNCTION     0.05     0.08     8.01     0  03:01        0.08
  YS02001622           JUNCTION     0.40     0.92     7.82     0  07:49        0.92
  YS02001633           JUNCTION     0.75     1.37     7.82     0  07:49        1.37
  YS02001649           JUNCTION     0.80     1.43     7.82     0  07:49        1.43
  YS02001757           JUNCTION     0.91     1.56     7.82     0  07:49        1.56
  YS02001895           JUNCTION     0.17     0.28     7.03     0  03:03        0.28
  YS02001625           JUNCTION     0.64     1.22     7.82     0  07:50        1.22
  YS02163301           JUNCTION     0.69     1.30     7.82     0  07:49        1.30
  YS02163601           JUNCTION     0.80     1.42     7.82     0  07:49        1.42
  YS02164001           JUNCTION     0.74     1.36     7.82     0  07:49        1.36
  YS02001647           JUNCTION     0.62     1.21     7.82     0  07:49        1.21
  YSB1154              JUNCTION     0.21     0.32     9.38     0  02:28        0.32
  YSB6556              JUNCTION     0.12     0.21     9.38     0  02:27        0.21
  YSB1174              JUNCTION     0.17     0.27     9.38     0  02:28        0.27
  YSB1171              JUNCTION     0.35     0.47     9.38     0  02:28        0.47
  YS02006553           JUNCTION     0.56     0.73     7.02     0  03:03        0.73
  YS02006561           JUNCTION     0.09     0.16     6.82     0  03:03        0.16
  YS02006556           JUNCTION     0.54     0.71     7.02     0  03:03        0.71
  YS02006558           JUNCTION     0.58     0.75     7.02     0  03:03        0.75
  YS02001783           JUNCTION     0.16     0.27     6.41     0  03:03        0.27
  YS02001784           JUNCTION     0.19     0.31     6.37     0  03:04        0.31
  YS02001786           JUNCTION     0.16     0.26     6.29     0  03:04        0.26
  YS02001788           JUNCTION     0.11     0.19     6.17     0  03:04        0.19
  YS02001790           JUNCTION     0.14     0.23     5.87     0  03:05        0.23
  YS02001791           JUNCTION     0.09     0.15     5.62     0  03:05        0.15
  YS02001793           JUNCTION     0.06     0.10     4.93     0  03:05        0.10
  WS02004139           JUNCTION     0.54     0.55     5.46     0  03:01        0.55
  WSC                  OUTFALL      0.21     0.27     0.94     0  03:00        0.27
  3                    OUTFALL      0.02     0.13     6.13     0  00:00        0.10
  4                    OUTFALL      0.00     0.00     7.00     0  00:00        0.00
  5                    OUTFALL      0.00     0.00     5.00     0  00:00        0.00
  JK-storage           STORAGE      0.11     3.00     3.80     0  00:00        2.70
  CC-storage           STORAGE      0.30     0.82     7.82     0  07:50        0.82
  XR-storage           STORAGE      7.00     7.72     5.72     0  03:14        7.72
  
  
  *******************
  Node Inflow Summary
  *******************
  
  -------------------------------------------------------------------------------------------------
                                  Maximum  Maximum                  Lateral       Total        Flow
                                  Lateral    Total  Time of Max      Inflow      Inflow     Balance
                                   Inflow   Inflow   Occurrence      Volume      Volume       Error
  Node                 Type           LPS      LPS  days hr:min    10^6 ltr    10^6 ltr     Percent
  -------------------------------------------------------------------------------------------------
  WS02001211           JUNCTION      7.35   197.67     0  03:02       0.207        5.54       0.549
  WS02001212           JUNCTION      0.00   197.67     0  03:02           0        5.51       0.287
  WS02001213           JUNCTION      0.00   197.67     0  03:00           0        5.49       0.323
  WS02003069           JUNCTION      0.32   457.58     0  02:58     0.00902        8.42       0.203
  WS02003072           JUNCTION      0.00   457.57     0  02:59           0        8.41       0.275
  WS02003073           JUNCTION      1.82   459.39     0  02:59      0.0514        8.43       0.285
  WS02003060           JUNCTION     16.53   457.26     0  02:57       0.466        8.43       0.194
  WS02003066           JUNCTION      0.00   243.29     0  02:56           0        2.52       0.082
  WS02003059           JUNCTION      0.00   198.00     0  03:24           0        5.48       0.553
  WS02003067           JUNCTION      0.00   243.29     0  02:56           0        2.53       0.211
  WS02004401           JUNCTION      0.00   245.17     0  02:49           0        2.66       0.480
  WS02004402           JUNCTION      0.00   244.81     0  02:49           0        2.65       0.479
  WS02004403           JUNCTION      0.00   244.60     0  02:50           0        2.63       0.458
  WS02004404           JUNCTION      0.16   244.62     0  02:50     0.00457        2.63       0.371
  WS02004406           JUNCTION      0.00   244.56     0  02:51           0         2.6       0.920
  WS02004409           JUNCTION      0.00   244.52     0  02:52           0        2.58       0.223
  WS02004410           JUNCTION      0.00   244.08     0  02:53           0        2.57       0.291
  WS02004411           JUNCTION      0.00   243.71     0  02:54           0        2.56       0.334
  WS02004412           JUNCTION      0.00   243.48     0  02:55           0        2.56       0.411
  WS02004413           JUNCTION      0.00   243.34     0  02:55           0        2.55       0.680
  WS02004405           JUNCTION      0.04   244.60     0  02:51     0.00107        2.62       0.557
  WS02006109           JUNCTION      1.23   244.92     0  02:44      0.0347        2.71       0.511
  WS02006110           JUNCTION      0.00   244.86     0  02:45           0         2.7       0.407
  WS02006111           JUNCTION      0.00   246.74     0  02:45           0        2.68       0.066
  WS02006112           JUNCTION      4.25   247.53     0  02:45      0.0155         2.7       0.724
  WS02006113           JUNCTION      0.00   244.81     0  02:45           0        2.69       0.125
  WS02006115           JUNCTION      0.00   246.63     0  02:46           0        2.68       0.342
  WS02006116           JUNCTION      0.00   245.71     0  02:48           0        2.67       0.357
  WS02006230           JUNCTION     10.28   155.05     0  02:54        0.29        2.09       0.331
  WS02006231           JUNCTION      0.00   144.77     0  02:53           0         1.8       0.211
  WS02006232           JUNCTION      0.00   144.78     0  02:52           0        1.81       0.459
  WS02006234           JUNCTION      0.00   144.79     0  02:52           0        1.81       0.023
  WS02006235           JUNCTION      0.00   166.25     0  00:01           0        1.84       0.297
  WS02006238           JUNCTION      0.00    88.92     0  00:00           0       0.125       1.727
  WS02006240           JUNCTION      0.00    40.17     0  00:02           0       0.105       1.147
  WS02006242           JUNCTION      0.00    28.67     0  00:04           0      0.0966       1.565
  WS02006243           JUNCTION      0.00    18.66     0  02:35           0      0.0892      -0.411
  WS02006245           JUNCTION      0.00    18.49     0  02:33           0      0.0878       0.732
  WS02006247           JUNCTION      0.00    18.50     0  02:32           0      0.0874       0.134
  WS02006248           JUNCTION      0.00    18.50     0  02:32           0      0.0874       0.035
  WS02006249           JUNCTION      0.00    18.53     0  02:31           0      0.0877       0.394
  WS02006239           JUNCTION      0.00    71.07     0  00:01           0       0.114       1.895
  WS02006251           JUNCTION      0.08    18.55     0  02:30     0.00217      0.0878       0.091
  WS02006252           JUNCTION      0.00     0.00     0  00:00           0           0       0.000 ltr
  WS02006253           JUNCTION      0.64    18.48     0  02:29     0.00201      0.0858       0.180
  WS02006256           JUNCTION      0.00   300.00     0  00:00           0        1.91       0.110
  WS02004138           JUNCTION      0.00   190.00     0  00:20           0        5.36       0.074
  WS02004407           JUNCTION      0.00   244.53     0  02:52           0        2.58       0.108
  WS02006228           JUNCTION      0.00   243.75     0  02:44           0        2.69       0.308
  WS02006229           JUNCTION      0.00   243.76     0  02:44           0        2.69       0.263
  WS02006280           JUNCTION      0.00   103.07     0  02:30           0       0.614       0.012
  WS02006284           JUNCTION      0.10   103.07     0  02:29      0.0027       0.615       0.188
  WS02006287           JUNCTION      0.00   102.98     0  02:29           0       0.613       0.113
  WSF200               JUNCTION      0.00   243.29     0  02:56           0        2.52       0.061
  HS02004901           JUNCTION      5.25     5.25     0  02:18      0.0186      0.0188      10.316
  HS02004881           JUNCTION      2.13    17.99     0  02:29     0.00813      0.0838       0.071
  HS02004876           JUNCTION      3.44    16.09     0  02:28      0.0155      0.0762       0.686
  HS02004870           JUNCTION      3.78    12.71     0  02:28      0.0154      0.0608       0.175
  HS02004862           JUNCTION      3.26     9.15     0  02:29      0.0209      0.0456       0.368
  HS02004856           JUNCTION      2.80     5.91     0  02:28      0.0115      0.0262       5.807
  HS02004852           JUNCTION      0.00     3.26     0  02:29           0      0.0147       0.326
  HS02004848           JUNCTION      6.36     6.36     0  02:33      0.0361      0.0361       0.120
  HS02004842           JUNCTION      0.00     4.47     0  00:03           0      0.0344      60.755
  HS02004837           JUNCTION     12.44    15.39     0  02:27       0.206       0.227       0.360
  HS02004830           JUNCTION      0.15    15.54     0  02:28     0.00423       0.217       0.569
  HS02004824           JUNCTION      7.25    22.69     0  02:33      0.0474       0.264       0.205
  HS02004817           JUNCTION      0.60    23.29     0  02:33      0.0169        0.28       6.324
  HS02004807           JUNCTION      7.10    29.82     0  02:31      0.0283       0.292       1.470
  HS02004802           JUNCTION      0.00    29.90     0  02:32           0       0.287       1.429
  HS02004799           JUNCTION      5.48    62.31     0  02:26      0.0228       0.297       0.760
  HS02004792           JUNCTION     24.56    56.94     0  02:26       0.103       0.274       0.153
  HS02004788           JUNCTION      9.12    33.38     0  02:27      0.0788       0.172       0.229
  HS02004785           JUNCTION      0.15    24.50     0  02:26     0.00423      0.0957       0.504
  HS02004777           JUNCTION      0.03    24.64     0  02:24    0.000846      0.0959       5.701
  HS02004770           JUNCTION     20.65    25.26     0  02:21      0.0796      0.0966       3.317
  HS02004480           JUNCTION      0.00    73.39     0  02:28           0       0.342       0.197
  HS02004479           JUNCTION      0.00    11.25     0  02:29           0      0.0575       1.283
  HS02004478           JUNCTION      0.00   102.98     0  02:29           0       0.614       0.109
  YS02001745           JUNCTION     36.57    41.82     0  06:39       0.427       0.455       0.921
  YS02001748           JUNCTION      0.04    62.27     0  04:23     0.00127       0.481       3.554
  YS02001751           JUNCTION      0.01    83.47     0  04:23     0.00031       0.437       5.442
  YS02001754           JUNCTION      0.26    63.65     0  03:27     0.00733       0.407       6.484
  YS02001762           JUNCTION      0.00    50.67     0  03:34           0       0.435       5.296
  YS02001765           JUNCTION      0.00    55.23     0  03:05           0       0.438       5.946
  YS02001767           JUNCTION      0.54    57.62     0  04:39      0.0151        0.46       8.502
  YS02001770           JUNCTION     48.09    62.65     0  04:39       0.514       0.543       6.445
  YS02001774           JUNCTION      0.00    40.54     0  04:38           0      0.0957      37.312
  YS02001779           JUNCTION      0.01    39.00     0  04:38    0.000141      0.0414      61.714
  YS02001882           JUNCTION      0.00     1.94     0  02:22           0      0.0033      75.068
  YS02001884           JUNCTION      0.00     5.63     0  02:11           0      0.0135      46.887
  YS02001759           JUNCTION     47.23    96.74     0  03:05       0.483       0.883       2.778
  YS02001887           JUNCTION     62.67    62.67     0  03:01       0.594         0.6       1.104
  YS02001890           JUNCTION      0.00    62.19     0  03:00           0       0.582       1.255
  YS02001898           JUNCTION      0.00    61.82     0  03:01           0       0.572       0.318
  YS02001901           JUNCTION      0.00    61.93     0  03:03           0       0.571       0.867
  YS02001904           JUNCTION      0.00    61.68     0  03:03           0       0.571       0.810
  YS02001907           JUNCTION      0.00   111.82     0  03:03           0        1.21       1.767
  YS02001910           JUNCTION      0.00    50.42     0  03:02           0       0.654       1.458
  YS02001915           JUNCTION     33.14    50.38     0  03:01        0.37       0.658       0.588
  YS02001918           JUNCTION      0.00    17.54     0  03:04           0       0.289       0.279
  YS02001619           JUNCTION     32.10    32.10     0  03:01       0.364       0.364       3.244
  YS02001629           JUNCTION      0.00    50.53     0  04:36           0       0.292      10.274
  YS02001641           JUNCTION      0.00    61.66     0  03:09           0       0.602       3.703
  YS02001644           JUNCTION     34.68    95.32     0  03:02        0.41       0.983       2.735
  YS02001652           JUNCTION      0.00    51.74     0  03:04           0       0.405       6.269
  YS02001655           JUNCTION      0.15    75.82     0  04:18     0.00434       0.436       5.794
  YS02001920           JUNCTION      2.87    17.56     0  03:03      0.0809        0.29       0.578
  YS02001923           JUNCTION      0.04    14.69     0  03:03     0.00106        0.21       0.103
  YS02001926           JUNCTION      0.05    14.72     0  03:01     0.00147        0.21       0.747
  YS02001929           JUNCTION     14.68    14.68     0  03:01       0.209       0.209       0.098
  YS02001658           JUNCTION      0.00    56.51     0  04:25           0       0.456       3.840
  YS02001661           JUNCTION      0.00    44.24     0  03:01           0       0.436       1.836
  YS02001664           JUNCTION     44.25    44.25     0  03:01       0.427       0.427       0.030
  YS02001622           JUNCTION      0.00    38.52     0  04:37           0       0.353       9.354
  YS02001633           JUNCTION     35.25    68.14     0  02:44       0.423       0.661       5.176
  YS02001649           JUNCTION      0.00   142.12     0  03:02           0        1.29       3.031
  YS02001757           JUNCTION      0.00   271.08     0  03:10           0        2.44       3.968
  YS02001895           JUNCTION      0.00    61.93     0  03:01           0       0.575       0.533
  YS02001625           JUNCTION      0.00    56.90     0  04:36           0        0.33      13.411
  YS02163301           JUNCTION      0.00    33.81     0  02:44           0       0.265      10.276
  YS02163601           JUNCTION      0.11    66.03     0  02:44      0.0031       0.627       5.140
  YS02164001           JUNCTION      0.00    63.19     0  02:52           0       0.606       3.619
  YS02001647           JUNCTION      0.00    95.21     0  03:02           0       0.945       3.106
  YSB1154              JUNCTION      6.12     6.12     0  02:25      0.0276       0.029       5.238
  YSB6556              JUNCTION      0.00     6.08     0  02:27           0      0.0301       4.316
  YSB1174              JUNCTION      5.96     5.96     0  02:17      0.0202      0.0212       6.436
  YSB1171              JUNCTION      0.00    11.26     0  02:27           0      0.0569      12.494
  YS02006553           JUNCTION      0.00   111.95     0  03:05           0         1.2       1.153
  YS02006561           JUNCTION      0.00   163.78     0  03:03           0         1.7       0.030
  YS02006556           JUNCTION      0.00   112.11     0  03:05           0         1.2       0.825
  YS02006558           JUNCTION     53.23   163.80     0  03:03       0.541        1.72       0.249
  YS02001783           JUNCTION      0.00   163.77     0  03:03           0         1.7       0.070
  YS02001784           JUNCTION      1.06   164.83     0  03:03      0.0299        1.73       0.118
  YS02001786           JUNCTION      0.06   164.86     0  03:04     0.00159        1.72       0.114
  YS02001788           JUNCTION      0.07   164.93     0  03:04       0.002        1.72       0.065
  YS02001790           JUNCTION      0.15   165.07     0  03:04     0.00437        1.73       0.083
  YS02001791           JUNCTION      0.00   165.06     0  03:05           0        1.73       0.040
  YS02001793           JUNCTION      0.00   165.06     0  03:05           0        1.73       0.019
  WS02004139           JUNCTION      0.32   191.11     0  00:00     0.00905        5.36       0.590
  WSC                  OUTFALL       0.00   459.35     0  03:00           0        8.41       0.000
  3                    OUTFALL       0.00   250.55     0  00:00           0       0.169       0.000
  4                    OUTFALL       0.00     0.00     0  00:00           0           0       0.000 ltr
  5                    OUTFALL       0.00     0.00     0  00:00           0           0       0.000 ltr
  JK-storage           STORAGE       0.00   165.06     0  03:05           0        1.88      -1.482
  CC-storage           STORAGE       0.00   241.70     0  03:05           0        2.33       2.141
  XR-storage           STORAGE     260.45   260.45     0  03:01        6.35        6.95       0.000
  
  
  **********************
  Node Surcharge Summary
  **********************
  
  Surcharging occurs when water rises above the top of the highest conduit.
  ---------------------------------------------------------------------
                                               Max. Height   Min. Depth
                                   Hours       Above Crown    Below Rim
  Node                 Type      Surcharged         Meters       Meters
  ---------------------------------------------------------------------
  YS02001754           JUNCTION        1.76          0.166        0.984
  YS02001762           JUNCTION        3.57          0.421        0.729
  YS02001765           JUNCTION        3.25          0.371        0.729
  YS02001767           JUNCTION        3.05          0.331        0.699
  YS02001770           JUNCTION        2.80          0.297        0.623
  YS02001774           JUNCTION        3.44          0.400        0.650
  YS02001779           JUNCTION        1.50          0.136        0.544
  YS02001759           JUNCTION        3.77          0.458        0.752
  YS02001641           JUNCTION        3.35          0.385        0.715
  YS02001644           JUNCTION        3.38          0.390        0.530
  YS02001652           JUNCTION        2.03          0.196        0.934
  YS02001633           JUNCTION        3.14          0.347        0.713
  YS02001649           JUNCTION        3.63          0.431        0.619
  YS02001757           JUNCTION        4.32          0.561        0.649
  YS02001625           JUNCTION        2.22          0.217        0.563
  YS02163301           JUNCTION        2.87          0.304        0.726
  YS02163601           JUNCTION        3.59          0.423        0.657
  YS02164001           JUNCTION        3.23          0.364        0.736
  YS02001647           JUNCTION        2.15          0.212        0.688
  
  
  *********************
  Node Flooding Summary
  *********************
  
  Flooding refers to all water that overflows a node, whether it ponds or not.
  --------------------------------------------------------------------------
                                                             Total   Maximum
                                 Maximum   Time of Max       Flood    Ponded
                        Hours       Rate    Occurrence      Volume     Depth
  Node                 Flooded       LPS   days hr:min    10^6 ltr    Meters
  --------------------------------------------------------------------------
  XR-storage              4.59     64.22      0  03:14       0.665     0.000
  
  
  **********************
  Storage Volume Summary
  **********************
  
  --------------------------------------------------------------------------------------------------
                         Average     Avg  Evap Exfil       Maximum     Max    Time of Max    Maximum
                          Volume    Pcnt  Pcnt  Pcnt        Volume    Pcnt     Occurrence    Outflow
  Storage Unit           1000 m3    Full  Loss  Loss       1000 m3    Full    days hr:min        LPS
  --------------------------------------------------------------------------------------------------
  JK-storage               0.005       2     0     0         0.151      52       0  00:00     300.00
  CC-storage               0.845       5     0     0         2.285      15       0  07:50       0.00
  XR-storage               0.840      91     0     0         0.926     100       0  03:14     190.00
  
  
  ***********************
  Outfall Loading Summary
  ***********************
  
  -----------------------------------------------------------
                         Flow       Avg       Max       Total
                         Freq      Flow      Flow      Volume
  Outfall Node           Pcnt       LPS       LPS    10^6 ltr
  -----------------------------------------------------------
  WSC                   99.98    310.50    459.35       8.410
  3                     34.49     48.85    250.55       0.169
  4                      0.00      0.00      0.00       0.000
  5                      0.00      0.00      0.00       0.000
  -----------------------------------------------------------
  System                33.62    359.35    493.21       8.579
  
  
  ********************
  Link Flow Summary
  ********************
  
  -----------------------------------------------------------------------------
                                 Maximum  Time of Max   Maximum    Max/    Max/
                                  |Flow|   Occurrence   |Veloc|    Full    Full
  Link                 Type          LPS  days hr:min     m/sec    Flow   Depth
  -----------------------------------------------------------------------------
  WS02003066WSF200     CONDUIT    243.29     0  02:56      2.33    0.04    0.15
  WS02006287WS02006284 CONDUIT    102.97     0  02:29      1.27    0.05    0.16
  WS02006284WS02006280 CONDUIT    103.07     0  02:30      1.52    0.04    0.14
  WS02006280WS02006229 CONDUIT    103.07     0  02:30      2.44    0.02    0.10
  WS02006229WS02006228 CONDUIT    243.75     0  02:44      0.83    0.81    0.78
  WS02006256WS02006235 CONDUIT    166.25     0  00:01      2.58    1.76    1.00
  WS02006253WS02006251 CONDUIT     18.47     0  02:30      0.37    0.06    0.19
  WS02006252WS02006251 CONDUIT      0.00     0  00:00      0.00    0.00    0.00
  WS02006251WS02006249 CONDUIT     18.53     0  02:31      0.40    0.05    0.18
  WS02006249WS02006248 CONDUIT     18.50     0  02:32      0.48    0.10    0.16
  WS02006248WS02006247 CONDUIT     18.50     0  02:32      0.48    0.04    0.16
  WS02006247WS02006245 CONDUIT     18.49     0  02:33      0.43    0.15    0.17
  WS02006245WS02006243 CONDUIT     18.66     0  02:35      0.55    0.06    0.16
  WS02006243WS02006242 CONDUIT     18.40     0  02:33      0.42    0.04    0.28
  WS02006242WS02006240 CONDUIT     29.18     0  00:12      0.64    0.12    0.38
  WS02006240WS02006239 CONDUIT     42.40     0  00:11      0.58    0.13    0.40
  WS02006239WS02006238 CONDUIT     71.07     0  00:01      0.67    0.23    0.52
  WS02006238WS02006235 CONDUIT     95.49     0  00:11      1.25    0.21    0.57
  WS02006235WS02006234 CONDUIT    144.79     0  02:52      0.93    1.53    0.51
  WS02006234WS02006232 CONDUIT    144.78     0  02:52      1.13    0.29    0.59
  WS02006232WS02006231 CONDUIT    144.77     0  02:53      0.64    0.30    0.57
  WS02006231WS02006230 CONDUIT    144.77     0  02:54      0.97    2.20    0.41
  WS02006230WS02006229 CONDUIT    155.26     0  02:54      0.86    3.46    0.83
  WS02006228WS02006109 CONDUIT    243.69     0  02:44      0.75    1.06    0.82
  WS02006116WS02004401 CONDUIT    245.17     0  02:49      0.73    0.34    0.60
  WS02006115WS02006116 CONDUIT    245.71     0  02:48      0.79    0.32    0.51
  WS02006113WS02006111 CONDUIT    246.74     0  02:45      1.89    0.30    0.31
  WS02006112WS02006115 CONDUIT    246.63     0  02:46      0.48    0.15    0.63
  WS02006111WS02006112 CONDUIT    244.79     0  02:46      1.32    0.12    0.59
  WS02006110WS02006113 CONDUIT    244.81     0  02:45      0.76    0.22    0.61
  WS02006109WS02006110 CONDUIT    244.86     0  02:45      0.58    0.47    0.78
  WS02004411WS02004412 CONDUIT    243.48     0  02:55      0.64    0.35    0.49
  WS02004401WS02004402 CONDUIT    244.81     0  02:49      0.77    0.29    0.64
  WS02004413WS02003067 CONDUIT    243.29     0  02:56      0.72    0.10    0.44
  WS02004412WS02004413 CONDUIT    243.34     0  02:55      0.51    0.16    0.59
  WS02004410WS02004411 CONDUIT    243.71     0  02:54      0.68    0.33    0.47
  WS02004409WS02004410 CONDUIT    244.08     0  02:53      0.72    0.32    0.45
  WS02004407WS02004409 CONDUIT    244.52     0  02:52      1.16    0.09    0.32
  WS02004406WS02004407 CONDUIT    244.53     0  02:52      0.65    0.11    0.48
  WS02004405WS02004406 CONDUIT    244.56     0  02:51      0.66    0.48    0.76
  WS02004404WS02004405 CONDUIT    244.57     0  02:51      0.84    2.40    0.76
  WS02004403WS02004404 CONDUIT    244.46     0  02:50      0.74    0.18    0.72
  WS02004402WS02004403 CONDUIT    244.60     0  02:50      0.75    0.35    0.67
  WS02004139WS02001211 CONDUIT    190.33     0  03:02      0.69    0.24    0.44
  WS02004138WS02004139 CONDUIT    190.79     0  00:00      2.94    0.04    0.32
  WS02003067WS02003066 CONDUIT    243.29     0  02:56      0.77    0.08    0.32
  WS02001213WS02003059 CONDUIT    198.00     0  03:24      0.65    0.33    0.59
  WS02001212WS02001213 CONDUIT    197.67     0  03:00      1.03    0.30    0.29
  WS02001211WS02001212 CONDUIT    197.67     0  03:02      0.54    0.15    0.48
  WS02003072WS02003073 CONDUIT    457.56     0  02:59      1.34    0.99    0.34
  WS02003069WS02003072 CONDUIT    457.57     0  02:59      1.29    0.22    0.35
  WS02003060WS02003069 CONDUIT    457.26     0  02:58      1.57    0.18    0.30
  WS02003059WS02003060 CONDUIT    198.61     0  03:23      0.67    0.13    0.49
  HS02004901HS02004770 CONDUIT      4.80     0  02:25      0.03    0.02    0.25
  HS02004876HS02004881 CONDUIT     16.05     0  02:30      0.34    0.17    0.07
  HS02004870HS02004876 CONDUIT     12.70     0  02:29      0.24    0.01    0.08
  HS02004842HS02004848 CONDUIT      3.25     0  02:42      0.02    0.00    0.26
  HS02004837HS02004842 CONDUIT      4.47     0  00:03      0.41    0.00    0.27
  HS02004830HS02004837 CONDUIT     15.39     0  02:28      0.37    0.02    0.06
  HS02004824HS02004830 CONDUIT     15.54     0  02:29      0.41    0.02    0.05
  HS02004817HS02004824 CONDUIT     22.69     0  02:33      0.17    0.01    0.36
  HS02004770HS02004777 CONDUIT     24.61     0  02:24      0.14    0.05    0.26
  HS02004799HS02004480 CONDUIT     62.22     0  02:27      0.40    0.08    0.22
  HS02004792HS02004799 CONDUIT     56.92     0  02:26      0.47    0.03    0.17
  HS02004788HS02004792 CONDUIT     33.36     0  02:28      0.64    0.02    0.07
  HS02004785HS02004788 CONDUIT     24.42     0  02:28      0.36    0.18    0.10
  HS02004777HS02004785 CONDUIT     24.35     0  02:26      0.17    0.03    0.21
  HS02004480HS02004478 CONDUIT     73.37     0  02:28      0.71    0.31    0.15
  HS02004479HS02004480 CONDUIT     11.32     0  02:30      0.16    0.01    0.22
  HS02004862HS02004870 CONDUIT      9.13     0  02:30      0.34    0.01    0.04
  HS02004848HS02004852 CONDUIT      3.26     0  02:29      0.22    0.00    0.02
  HS02004856HS02004862 CONDUIT      5.89     0  02:30      0.24    0.01    0.03
  HS02004852HS02004856 CONDUIT      3.24     0  02:31      0.06    0.00    0.08
  HS02004802HS02004478 CONDUIT     30.01     0  02:34      0.22    0.03    0.20
  HS02004478WS02006287 CONDUIT    102.98     0  02:29      0.96    0.03    0.12
  HS02004817HS02004807 CONDUIT     23.48     0  02:36      0.07    0.01    0.45
  HS02004807HS02004802 CONDUIT     29.90     0  02:32      0.19    0.06    0.24
  YS02001759YS02001757 CONDUIT     95.80     0  03:05      0.13    0.07    1.00
  YS02001762YS02001759 CONDUIT     54.95     0  03:33      0.17    0.06    1.00
  YS02001765YS02001762 CONDUIT     50.67     0  03:34      0.22    0.05    1.00
  YS02001770YS02001767 CONDUIT     57.08     0  04:39      0.28    0.23    1.00
  YS02001774YS02001770 CONDUIT     40.54     0  04:38      0.12    0.03    1.00
  YS02001779YS02001774 CONDUIT     38.99     0  04:38      0.06    0.02    1.00
  YS02001649YS02001757 CONDUIT    138.42     0  03:02      0.19    0.08    1.00
  YS02001767YS02001765 CONDUIT     55.23     0  03:05      0.25    0.07    1.00
  YS02006561YS02001783 CONDUIT    163.77     0  03:03      1.50    0.08    0.27
  YS02001783YS02001784 CONDUIT    163.77     0  03:03      1.00    0.23    0.36
  YS02001784YS02001785 CONDUIT    164.81     0  03:04      1.03    0.38    0.35
  YS02001788YS02001790 CONDUIT    164.91     0  03:04      1.58    0.12    0.26
  YS02001790YS02001791 CONDUIT    165.06     0  03:05      1.80    0.18    0.24
  YS02001791YS02001793 CONDUIT    165.06     0  03:05      3.24    0.07    0.16
  YS02001910YS02001907 CONDUIT     50.42     0  03:05      0.49    0.03    0.62
  YS02001786YS02001788 CONDUIT    164.85     0  03:04      1.43    0.32    0.28
  YS02001915YS02001910 CONDUIT     50.42     0  03:02      0.44    0.03    0.41
  YS02001918YS02001915 CONDUIT     17.53     0  03:05      0.44    0.01    0.18
  YS02001923YS02001920 CONDUIT     14.69     0  03:03      0.31    0.01    0.11
  YS02001926YS02001923 CONDUIT     14.65     0  03:03      0.37    0.02    0.10
  YS02001929YS02001926 CONDUIT     14.67     0  03:01      0.38    0.01    0.10
  YS02001920YS02001918 CONDUIT     17.54     0  03:04      0.35    0.02    0.12
  YS02001629YS02163301 CONDUIT     33.81     0  02:44      0.08    0.04    1.00
  YS02001619YS02001622 CONDUIT     38.52     0  04:37      0.52    0.06    0.90
  YS02001622YS02001625 CONDUIT     36.32     0  04:35      0.17    0.02    0.96
  YS02001625YS02001629 CONDUIT     50.53     0  04:36      0.17    0.02    0.95
  YS02163301YS02001633 CONDUIT     36.48     0  02:44      0.07    0.03    1.00
  YS02163601YS02164001 CONDUIT     63.19     0  02:52      0.11    0.06    1.00
  YS02164001YS02001641 CONDUIT     61.66     0  03:09      0.11    0.08    1.00
  YS02001641YS02001644 CONDUIT     61.02     0  03:02      0.12    0.20    1.00
  YS02001647YS02001649 CONDUIT     96.67     0  04:38      0.17    0.05    1.00
  YS02006553YS02006556 CONDUIT    112.11     0  03:05      0.19    0.10    0.70
  YS02006556YS02006558 CONDUIT    112.19     0  03:05      0.18    0.09    0.73
  YSB6556YSB1171       CONDUIT      6.16     0  02:31      0.03    0.01    0.49
  YS02001907YS02006553 CONDUIT    111.95     0  03:05      0.16    0.13    0.80
  YS02006558YS02006561 CONDUIT    163.78     0  03:03      1.94    0.36    0.34
  YS02001633YS02163601 CONDUIT     65.92     0  02:44      0.12    0.07    1.00
  YS02001644YS02001647 CONDUIT     95.21     0  03:02      0.18    0.06    1.00
  YS02001745YS02001748 CONDUIT     53.64     0  06:38      1.18    0.02    0.49
  YS02001748YS02001751 CONDUIT     83.46     0  04:23      0.91    0.04    0.85
  YS02001751YS02001754 CONDUIT     54.22     0  03:25      0.82    0.03    0.97
  YS02001754YS02001757 CONDUIT     70.06     0  04:13      0.33    0.03    1.00
  YS02001882YS02001884 CONDUIT      1.94     0  02:22      0.06    0.00    0.34
  YS02001884YS02001887 CONDUIT      5.63     0  02:11      0.04    0.01    0.43
  YS02001890YS02001895 CONDUIT     61.93     0  03:01      0.21    0.03    0.41
  YS02001895YS02001898 CONDUIT     61.82     0  03:01      0.40    0.11    0.27
  YS02001898YS02001901 CONDUIT     61.93     0  03:03      0.26    0.04    0.35
  YS02001901YS02001904 CONDUIT     61.68     0  03:03      0.21    0.10    0.40
  YS02001904YS02001907 CONDUIT     61.93     0  03:03      0.14    0.02    0.56
  YS02001887YS02001890 CONDUIT     62.19     0  03:00      0.16    0.11    0.49
  YS02001652YS02001649 CONDUIT     67.47     0  04:26      0.24    0.03    1.00
  YS02001655YS02001652 CONDUIT     51.74     0  03:04      0.88    0.03    0.99
  YS02001658YS02001655 CONDUIT     75.67     0  04:18      1.04    0.03    0.83
  YS02001661YS02001658 CONDUIT     44.22     0  03:01      1.20    0.02    0.51
  YS02001664YS02001661 CONDUIT     44.24     0  03:01      0.81    0.01    0.23
  YSB1154YSB6556       CONDUIT      6.08     0  02:27      0.19    0.01    0.38
  YSB1174YSB1171       CONDUIT      5.54     0  02:20      0.03    0.01    0.49
  YSB1171HS02004479    CONDUIT     11.25     0  02:29      0.54    0.01    0.37
  HS02004881HS02006253 CONDUIT     17.99     0  02:30      1.23    0.00    0.02
  YS02001793JiankangQianchi CONDUIT    165.06     0  03:05     10.84    0.01    0.50
  YS02001757CaochengTiaoxuchi CONDUIT    241.70     0  03:05      0.59    0.11    0.91
  WSF200WS02003060     CONDUIT    243.29     0  02:57      1.29    0.05    0.22
  1                    CONDUIT    459.35     0  03:00      2.68    0.16    0.27
  2                    CONDUIT      0.00     0  00:00      0.00    0.00    0.00
  3                    CONDUIT    250.55     0  00:00      8.26    0.40    0.46
  4                    CONDUIT      0.00     0  00:00      0.00    0.00    0.00
  CC-Pump-1            PUMP         0.00     0  00:00              0.00
  CC-Pump-2            PUMP         0.00     0  00:00              0.00
  JK-Pump-1            PUMP       300.00     0  00:00              1.00
  JK-Pump-2            PUMP       165.06     0  03:05              0.55
  XR-Pump-1            PUMP        95.00     0  00:00              1.00
  XR-Pump-2            PUMP        95.00     0  00:00              1.00
  XR-Pump-3            PUMP         0.00     0  00:00              0.00
  XR-Pump-4            PUMP        95.00     0  00:30              1.00
  
  
  ***************************
  Flow Classification Summary
  ***************************
  
  -------------------------------------------------------------------------------------
                      Adjusted    ---------- Fraction of Time in Flow Class ---------- 
                       /Actual         Up    Down  Sub   Sup   Up    Down  Norm  Inlet 
  Conduit               Length    Dry  Dry   Dry   Crit  Crit  Crit  Crit  Ltd   Ctrl  
  -------------------------------------------------------------------------------------
  WS02003066WSF200        1.00   0.18  0.00  0.00  0.00  0.82  0.00  0.00  0.76  0.00
  WS02006287WS02006284    1.00   0.12  0.04  0.00  0.54  0.30  0.00  0.00  0.81  0.00
  WS02006284WS02006280    1.00   0.14  0.00  0.00  0.00  0.00  0.00  0.86  0.00  0.00
  WS02006280WS02006229    1.00   0.14  0.00  0.00  0.00  0.00  0.00  0.86  0.00  0.00
  WS02006229WS02006228    1.00   0.00  0.00  0.00  0.96  0.00  0.00  0.04  0.00  0.00
  WS02006256WS02006235    1.00   0.00  0.00  0.00  0.99  0.01  0.00  0.00  0.00  0.00
  WS02006253WS02006251    1.00   0.09  0.03  0.00  0.87  0.00  0.01  0.00  0.00  0.00
  WS02006252WS02006251    1.00   1.00  0.00  0.00  0.00  0.00  0.00  0.00  0.00  0.00
  WS02006251WS02006249    1.00   0.00  0.00  0.00  1.00  0.00  0.00  0.00  0.98  0.00
  WS02006249WS02006248    1.00   0.00  0.06  0.00  0.00  0.00  0.93  0.00  0.00  0.00
  WS02006248WS02006247    1.00   0.07  0.00  0.00  0.93  0.00  0.00  0.00  0.87  0.00
  WS02006247WS02006245    1.00   0.06  0.00  0.00  0.94  0.00  0.00  0.00  0.00  0.00
  WS02006245WS02006243    1.00   0.04  0.01  0.00  0.82  0.00  0.00  0.13  0.23  0.00
  WS02006243WS02006242    1.00   0.02  0.01  0.00  0.97  0.00  0.00  0.00  0.63  0.00
  WS02006242WS02006240    1.00   0.01  0.00  0.00  0.99  0.00  0.00  0.00  0.00  0.00
  WS02006240WS02006239    1.00   0.01  0.00  0.00  0.86  0.00  0.00  0.14  0.01  0.00
  WS02006239WS02006238    1.00   0.00  0.00  0.00  1.00  0.00  0.00  0.00  0.01  0.00
  WS02006238WS02006235    1.00   0.00  0.00  0.00  1.00  0.00  0.00  0.00  0.00  0.00
  WS02006235WS02006234    1.00   0.00  0.00  0.00  0.85  0.00  0.15  0.00  0.00  0.00
  WS02006234WS02006232    1.00   0.00  0.00  0.00  0.99  0.01  0.00  0.00  0.18  0.00
  WS02006232WS02006231    1.00   0.00  0.01  0.00  0.98  0.00  0.01  0.00  0.00  0.00
  WS02006231WS02006230    1.00   0.01  0.00  0.00  0.00  0.00  0.99  0.00  0.00  0.00
  WS02006230WS02006229    1.00   0.00  0.00  0.00  0.95  0.00  0.00  0.05  0.01  0.00
  WS02006228WS02006109    1.00   0.00  0.00  0.00  0.99  0.00  0.00  0.01  0.00  0.00
  WS02006116WS02004401    1.00   0.08  0.00  0.00  0.92  0.00  0.00  0.00  0.00  0.00
  WS02006115WS02006116    1.00   0.08  0.00  0.00  0.91  0.00  0.00  0.02  0.00  0.00
  WS02006113WS02006111    1.00   0.06  0.00  0.00  0.00  0.94  0.00  0.00  0.13  0.00
  WS02006112WS02006115    1.00   0.07  0.01  0.00  0.92  0.00  0.00  0.00  0.00  0.00
  WS02006111WS02006112    1.00   0.07  0.00  0.00  0.92  0.00  0.00  0.01  0.98  0.00
  WS02006110WS02006113    1.00   0.03  0.03  0.00  0.94  0.00  0.00  0.00  0.00  0.00
  WS02006109WS02006110    1.00   0.00  0.03  0.00  0.94  0.00  0.02  0.00  0.00  0.00
  WS02004411WS02004412    1.00   0.12  0.00  0.00  0.88  0.00  0.00  0.00  0.00  0.00
  WS02004401WS02004402    1.00   0.08  0.00  0.00  0.92  0.00  0.00  0.00  0.00  0.00
  WS02004413WS02003067    1.00   0.12  0.04  0.00  0.00  0.00  0.83  0.00  0.00  0.00
  WS02004412WS02004413    1.00   0.12  0.00  0.00  0.88  0.00  0.00  0.00  0.03  0.00
  WS02004410WS02004411    1.00   0.12  0.00  0.00  0.88  0.00  0.00  0.00  0.04  0.00
  WS02004409WS02004410    1.00   0.12  0.00  0.00  0.88  0.00  0.00  0.00  0.04  0.00
  WS02004407WS02004409    1.00   0.12  0.00  0.00  0.88  0.01  0.00  0.00  0.89  0.00
  WS02004406WS02004407    1.00   0.00  0.11  0.00  0.88  0.00  0.00  0.00  0.00  0.00
  WS02004405WS02004406    1.00   0.00  0.00  0.00  1.00  0.00  0.00  0.00  0.00  0.00
  WS02004404WS02004405    1.00   0.00  0.00  0.00  1.00  0.00  0.00  0.00  0.00  0.00
  WS02004403WS02004404    1.00   0.00  0.08  0.00  0.92  0.00  0.00  0.00  0.01  0.00
  WS02004402WS02004403    1.00   0.08  0.00  0.00  0.92  0.00  0.00  0.00  0.00  0.00
  WS02004139WS02001211    1.00   0.00  0.00  0.00  0.99  0.00  0.01  0.00  0.00  0.00
  WS02004138WS02004139    1.00   0.00  0.00  0.00  0.97  0.02  0.00  0.01  1.00  0.00
  WS02003067WS02003066    1.00   0.17  0.01  0.00  0.82  0.00  0.00  0.00  0.00  0.00
  WS02001213WS02003059    1.00   0.01  0.01  0.00  0.98  0.00  0.00  0.00  0.00  0.00
  WS02001212WS02001213    1.00   0.01  0.00  0.00  0.01  0.00  0.97  0.00  0.00  0.00
  WS02001211WS02001212    1.00   0.00  0.01  0.00  0.99  0.00  0.00  0.00  0.00  0.00
  WS02003072WS02003073    1.00   0.00  0.00  0.00  0.00  0.00  0.00  1.00  0.00  0.00
  WS02003069WS02003072    1.00   0.00  0.00  0.00  0.98  0.02  0.00  0.00  0.80  0.00
  WS02003060WS02003069    1.00   0.00  0.00  0.00  0.96  0.04  0.00  0.00  0.25  0.00
  WS02003059WS02003060    1.00   0.00  0.00  0.00  0.99  0.01  0.00  0.00  0.01  0.00
  HS02004901HS02004770    1.00   0.13  0.00  0.00  0.86  0.00  0.00  0.00  0.03  0.00
  HS02004876HS02004881    1.00   0.07  0.00  0.00  0.93  0.00  0.00  0.00  0.00  0.00
  HS02004870HS02004876    1.00   0.02  0.00  0.00  0.98  0.01  0.00  0.00  0.95  0.00
  HS02004842HS02004848    1.00   0.00  0.14  0.00  0.86  0.00  0.00  0.00  0.70  0.00
  HS02004837HS02004842    1.00   0.00  0.00  0.00  0.98  0.02  0.00  0.00  0.11  0.00
  HS02004830HS02004837    1.00   0.00  0.00  0.00  0.99  0.01  0.00  0.00  0.99  0.00
  HS02004824HS02004830    1.00   0.00  0.00  0.00  1.00  0.00  0.00  0.00  0.00  0.00
  HS02004817HS02004824    1.00   0.00  0.00  0.00  1.00  0.00  0.00  0.00  1.00  0.00
  HS02004770HS02004777    1.00   0.00  0.14  0.00  0.86  0.00  0.00  0.00  0.08  0.00
  HS02004799HS02004480    1.00   0.01  0.07  0.00  0.83  0.00  0.09  0.00  0.00  0.00
  HS02004792HS02004799    1.00   0.00  0.00  0.00  0.96  0.04  0.00  0.00  0.98  0.00
  HS02004788HS02004792    1.00   0.00  0.00  0.00  0.96  0.04  0.00  0.00  0.98  0.00
  HS02004785HS02004788    1.00   0.00  0.00  0.00  1.00  0.00  0.00  0.00  0.00  0.00
  HS02004777HS02004785    1.00   0.00  0.00  0.00  1.00  0.00  0.00  0.00  0.22  0.00
  HS02004480HS02004478    1.00   0.15  0.00  0.00  0.56  0.00  0.00  0.29  0.00  0.00
  HS02004479HS02004480    1.00   0.08  0.00  0.00  0.92  0.00  0.00  0.00  0.16  0.00
  HS02004862HS02004870    1.00   0.00  0.00  0.00  1.00  0.00  0.00  0.00  0.06  0.00
  HS02004848HS02004852    1.00   0.14  0.00  0.00  0.86  0.00  0.00  0.00  0.68  0.00
  HS02004856HS02004862    1.00   0.00  0.21  0.00  0.79  0.00  0.00  0.00  0.73  0.00
  HS02004852HS02004856    1.00   0.13  0.02  0.00  0.84  0.00  0.00  0.00  0.82  0.00
  HS02004802HS02004478    1.00   0.14  0.02  0.00  0.84  0.00  0.00  0.00  0.00  0.00
  HS02004478WS02006287    1.00   0.16  0.00  0.00  0.83  0.00  0.00  0.00  0.81  0.00
  HS02004817HS02004807    1.00   0.00  0.14  0.00  0.86  0.00  0.00  0.00  0.00  0.00
  HS02004807HS02004802    1.00   0.14  0.00  0.00  0.86  0.00  0.00  0.01  0.01  0.00
  YS02001759YS02001757    1.00   0.00  0.00  0.00  1.00  0.00  0.00  0.00  0.17  0.00
  YS02001762YS02001759    1.00   0.00  0.00  0.00  1.00  0.00  0.00  0.00  0.05  0.00
  YS02001765YS02001762    1.00   0.00  0.00  0.00  1.00  0.00  0.00  0.00  0.23  0.00
  YS02001770YS02001767    1.00   0.00  0.00  0.00  1.00  0.00  0.00  0.00  0.00  0.00
  YS02001774YS02001770    1.00   0.01  0.16  0.00  0.84  0.00  0.00  0.00  0.07  0.00
  YS02001779YS02001774    1.00   0.00  0.00  0.00  1.00  0.00  0.00  0.00  0.28  0.00
  YS02001649YS02001757    1.00   0.00  0.00  0.00  1.00  0.00  0.00  0.00  0.19  0.00
  YS02001767YS02001765    1.00   0.00  0.00  0.00  1.00  0.00  0.00  0.00  0.01  0.00
  YS02006561YS02001783    1.00   0.21  0.00  0.00  0.00  0.79  0.00  0.00  0.72  0.00
  YS02001783YS02001784    1.00   0.00  0.21  0.00  0.79  0.00  0.00  0.00  0.12  0.00
  YS02001784YS02001785    1.00   0.00  0.00  0.00  1.00  0.00  0.00  0.00  0.27  0.00
  YS02001788YS02001790    1.00   0.00  0.00  0.00  0.22  0.78  0.00  0.00  0.99  0.00
  YS02001790YS02001791    1.00   0.00  0.00  0.00  0.05  0.95  0.00  0.00  0.34  0.00
  YS02001791YS02001793    1.00   0.00  0.00  0.00  0.00  1.00  0.00  0.00  0.00  0.00
  YS02001910YS02001907    1.00   0.00  0.00  0.00  0.92  0.00  0.00  0.07  0.13  0.00
  YS02001786YS02001788    1.00   0.00  0.00  0.00  0.25  0.75  0.00  0.00  0.00  0.00
  YS02001915YS02001910    1.00   0.00  0.00  0.00  0.97  0.03  0.00  0.00  0.25  0.00
  YS02001918YS02001915    1.00   0.00  0.02  0.00  0.94  0.04  0.00  0.00  0.80  0.00
  YS02001923YS02001920    1.00   0.00  0.00  0.00  1.00  0.00  0.00  0.00  1.00  0.00
  YS02001926YS02001923    1.00   0.00  0.10  0.00  0.00  0.00  0.90  0.00  0.00  0.00
  YS02001929YS02001926    1.00   0.00  0.13  0.00  0.87  0.00  0.00  0.00  0.86  0.00
  YS02001920YS02001918    1.00   0.00  0.02  0.00  0.98  0.00  0.00  0.00  0.00  0.00
  YS02001629YS02163301    1.00   0.19  0.01  0.00  0.80  0.00  0.00  0.00  0.00  0.00
  YS02001619YS02001622    1.00   0.13  0.00  0.00  0.87  0.00  0.00  0.00  0.00  0.00
  YS02001622YS02001625    1.00   0.14  0.00  0.00  0.86  0.00  0.00  0.00  0.14  0.00
  YS02001625YS02001629    1.00   0.14  0.08  0.00  0.73  0.00  0.04  0.00  0.00  0.00
  YS02163301YS02001633    1.00   0.00  0.19  0.00  0.81  0.00  0.00  0.00  0.00  0.00
  YS02163601YS02164001    1.00   0.00  0.11  0.00  0.89  0.00  0.00  0.00  0.00  0.00
  YS02164001YS02001641    1.00   0.03  0.08  0.00  0.89  0.00  0.00  0.00  0.07  0.00
  YS02001641YS02001644    1.00   0.00  0.02  0.00  0.98  0.00  0.00  0.00  0.00  0.00
  YS02001647YS02001649    1.00   0.00  0.21  0.00  0.79  0.00  0.00  0.00  0.01  0.00
  YS02006553YS02006556    1.00   0.04  0.00  0.00  0.96  0.00  0.00  0.00  0.03  0.00
  YS02006556YS02006558    1.00   0.00  0.01  0.00  0.99  0.00  0.00  0.00  0.00  0.00
  YSB6556YSB1171          1.00   0.09  0.04  0.00  0.87  0.00  0.00  0.00  0.00  0.00
  YS02001907YS02006553    1.00   0.01  0.07  0.00  0.93  0.00  0.00  0.00  0.00  0.00
  YS02006558YS02006561    1.00   0.21  0.00  0.00  0.00  0.79  0.00  0.00  0.71  0.00
  YS02001633YS02163601    1.00   0.00  0.02  0.00  0.98  0.00  0.00  0.00  0.20  0.00
  YS02001644YS02001647    1.00   0.00  0.21  0.00  0.79  0.00  0.00  0.00  0.00  0.00
  YS02001745YS02001748    1.00   0.00  0.00  0.00  0.49  0.05  0.00  0.47  0.26  0.00
  YS02001748YS02001751    1.00   0.00  0.00  0.00  0.92  0.08  0.00  0.00  0.29  0.00
  YS02001751YS02001754    1.00   0.00  0.00  0.00  0.77  0.00  0.00  0.23  0.03  0.00
  YS02001754YS02001757    1.00   0.00  0.00  0.00  0.98  0.02  0.00  0.00  0.28  0.00
  YS02001882YS02001884    1.00   0.18  0.01  0.00  0.81  0.00  0.00  0.00  0.00  0.00
  YS02001884YS02001887    1.00   0.10  0.03  0.00  0.88  0.00  0.00  0.00  0.00  0.00
  YS02001890YS02001895    1.00   0.01  0.19  0.00  0.80  0.00  0.00  0.00  0.00  0.00
  YS02001895YS02001898    1.00   0.20  0.00  0.00  0.78  0.00  0.02  0.00  0.00  0.00
  YS02001898YS02001901    1.00   0.19  0.02  0.00  0.80  0.00  0.00  0.00  0.02  0.00
  YS02001901YS02001904    1.00   0.19  0.00  0.00  0.81  0.00  0.00  0.00  0.00  0.00
  YS02001904YS02001907    1.00   0.01  0.18  0.00  0.82  0.00  0.00  0.00  0.00  0.00
  YS02001887YS02001890    1.00   0.00  0.01  0.00  0.92  0.00  0.07  0.00  0.00  0.00
  YS02001652YS02001649    1.00   0.00  0.00  0.00  1.00  0.00  0.00  0.00  0.27  0.00
  YS02001655YS02001652    1.00   0.00  0.00  0.00  0.77  0.00  0.00  0.23  0.03  0.00
  YS02001658YS02001655    1.00   0.00  0.17  0.00  0.75  0.08  0.00  0.00  0.22  0.00
  YS02001661YS02001658    1.00   0.17  0.00  0.00  0.49  0.34  0.00  0.00  0.37  0.00
  YS02001664YS02001661    1.00   0.13  0.00  0.00  0.87  0.00  0.00  0.00  0.86  0.00
  YSB1154YSB6556          1.00   0.13  0.00  0.00  0.87  0.00  0.00  0.00  0.02  0.00
  YSB1174YSB1171          1.00   0.09  0.02  0.00  0.89  0.00  0.00  0.00  0.00  0.00
  YSB1171HS02004479       1.00   0.08  0.00  0.00  0.91  0.00  0.00  0.01  0.13  0.00
  HS02004881HS02006253    1.00   0.09  0.00  0.00  0.00  0.00  0.00  0.91  0.00  0.00
  YS02001793JiankangQianchi    1.00   0.00  0.01  0.00  0.07  0.93  0.00  0.00  0.02  0.00
  YS02001757CaochengTiaoxuchi    1.00   0.00  0.27  0.00  0.73  0.00  0.00  0.00  0.00  0.00
  WSF200WS02003060        1.00   0.00  0.18  0.00  0.82  0.00  0.00  0.00  0.77  0.00
  1                       1.00   0.00  0.00  0.00  0.00  1.00  0.00  0.00  0.15  0.00
  2                       1.00   1.00  0.00  0.00  0.00  0.00  0.00  0.00  0.00  0.00
  3                       1.00   0.65  0.00  0.00  0.00  0.35  0.00  0.00  0.31  0.00
  4                       1.00   1.00  0.00  0.00  0.00  0.00  0.00  0.00  0.00  0.00
  
  
  *************************
  Conduit Surcharge Summary
  *************************
  
  ----------------------------------------------------------------------------
                                                           Hours        Hours 
                         --------- Hours Full --------   Above Full   Capacity
  Conduit                Both Ends  Upstream  Dnstream   Normal Flow   Limited
  ----------------------------------------------------------------------------
  WS02006256WS02006235        2.51      2.51      6.24      2.18         0.01
  WS02006235WS02006234        0.01      0.01      0.01      2.24         0.01
  WS02006231WS02006230        0.01      0.01      0.01      3.45         0.01
  WS02006230WS02006229        0.01      0.01      0.01      5.64         0.01
  WS02006228WS02006109        0.01      0.01      0.01      0.41         0.01
  WS02004404WS02004405        0.01      0.01      0.01      2.93         0.01
  YS02001759YS02001757        3.77      3.77      4.32      0.01         0.01
  YS02001762YS02001759        3.57      3.57      3.77      0.01         0.01
  YS02001765YS02001762        3.25      3.25      3.57      0.01         0.01
  YS02001770YS02001767        2.99      2.99      3.05      0.01         0.01
  YS02001774YS02001770        2.80      2.80      3.44      0.01         0.01
  YS02001779YS02001774        1.50      1.50      3.44      0.01         0.01
  YS02001649YS02001757        3.63      3.63      4.32      0.01         0.01
  YS02001767YS02001765        3.05      3.05      3.25      0.01         0.01
  YS02001629YS02163301        2.63      2.63      2.87      0.01         0.01
  YS02001622YS02001625        0.01      0.01      2.22      0.01         0.01
  YS02001625YS02001629        0.01      0.01      2.22      0.01         0.01
  YS02163301YS02001633        2.87      2.87      3.25      0.01         0.01
  YS02163601YS02164001        3.23      3.23      3.59      0.01         0.01
  YS02164001YS02001641        3.23      3.23      3.35      0.01         0.01
  YS02001641YS02001644        3.35      3.35      3.38      0.01         0.02
  YS02001647YS02001649        2.15      2.15      3.63      0.01         0.01
  YS02001633YS02163601        3.14      3.14      3.59      0.01         0.01
  YS02001644YS02001647        2.15      2.15      3.38      0.01         0.01
  YS02001751YS02001754        0.01      0.01      1.76      0.01         0.01
  YS02001754YS02001757        2.18      2.18      4.32      0.01         0.01
  YS02001652YS02001649        2.28      2.28      3.63      0.01         0.01
  YS02001655YS02001652        0.01      0.01      2.03      0.01         0.01
  YS02001793JiankangQianchi        0.01      0.01      0.09      0.01         0.01
  YS02001757CaochengTiaoxuchi        0.01      0.01      4.32      0.01         0.01
  
  
  ***************
  Pumping Summary
  ***************
  
  ---------------------------------------------------------------------------------------------------------
                                                  Min       Avg       Max     Total     Power    % Time Off
                        Percent   Number of      Flow      Flow      Flow    Volume     Usage    Pump Curve
  Pump                 Utilized   Start-Ups       LPS       LPS       LPS  10^6 ltr     Kw-hr    Low   High
  ---------------------------------------------------------------------------------------------------------
  CC-Pump-1                0.00           0      0.00      0.00      0.00     0.000      0.00    0.0    0.0
  CC-Pump-2                0.00           0      0.00      0.00      0.00     0.000      0.00    0.0    0.0
  JK-Pump-1                6.40           1      0.00    223.80    300.00     0.180      2.81    0.0    0.0
  JK-Pump-2               95.73           1      0.00     84.62    165.06     1.725     32.62    0.0    0.0
  XR-Pump-1                6.40           1      0.00     89.60     95.00     0.143      1.68    0.0    0.0
  XR-Pump-2              100.00           1      0.00     95.00     95.00     2.679     18.03    0.0    0.0
  XR-Pump-3                0.00           0      0.00      0.00      0.00     0.000      0.00    0.0    0.0
  XR-Pump-4               95.73           1      0.00     94.43     95.00     2.536     16.35    0.0    0.0
  

  Analysis begun on:  Thu Jan  6 00:20:34 2022
  Analysis ended on:  Thu Jan  6 00:20:35 2022
  Total elapsed time: 00:00:01