
  EPA STORM WATER MANAGEMENT MODEL - VERSION 5.1 (Build 5.3.0.dev0)
  --------------------------------------------------------------

  WARNING 04: minimum elevation drop used for Conduit WS02004404WS02004405
  WARNING 03: negative offset ignored for Link YS02001904YS02001907
  
  *********************************************************
  NOTE: The summary statistics displayed in this report are
  based on results found at every computational time step,  
  not just on results from each reporting time step.
  *********************************************************
  
  ****************
  Analysis Options
  ****************
  Flow Units ............... LPS
  Process Models:
    Rainfall/Runoff ........ YES
    RDII ................... NO
    Snowmelt ............... NO
    Groundwater ............ NO
    Flow Routing ........... YES
    Ponding Allowed ........ NO
    Water Quality .......... NO
  Infiltration Method ...... HORTON
  Flow Routing Method ...... DYNWAVE
  Surcharge Method ......... EXTRAN
  Starting Date ............ 08/28/2015 08:00:00
  Ending Date .............. 08/28/2015 15:50:00
  Antecedent Dry Days ...... 8.0
  Report Time Step ......... 00:01:00
  Wet Time Step ............ 00:01:00
  Dry Time Step ............ 00:01:00
  Routing Time Step ........ 5.00 sec
  Variable Time Step ....... YES
  Maximum Trials ........... 8
  Number of Threads ........ 4
  Head Tolerance ........... 0.001500 m
  
  
  **************************        Volume         Depth
  Runoff Quantity Continuity     hectare-m            mm
  **************************     ---------       -------
  Total Precipitation ......         2.455         5.375
  Evaporation Loss .........         0.000         0.000
  Infiltration Loss ........         0.614         1.344
  Surface Runoff ...........         0.980         2.145
  Final Storage ............         0.862         1.887
  Continuity Error (%) .....        -0.018
  
  
  **************************        Volume        Volume
  Flow Routing Continuity        hectare-m      10^6 ltr
  **************************     ---------     ---------
  Dry Weather Inflow .......         0.616         6.165
  Wet Weather Inflow .......         0.979         9.791
  Groundwater Inflow .......         0.000         0.000
  RDII Inflow ..............         0.000         0.000
  External Inflow ..........         0.102         1.024
  External Outflow .........         0.990         9.898
  Flooding Loss ............         0.162         1.622
  Evaporation Loss .........         0.000         0.000
  Exfiltration Loss ........         0.000         0.000
  Initial Stored Volume ....         0.076         0.761
  Final Stored Volume ......         0.622         6.219
  Continuity Error (%) .....         0.005
  
  
  *************************
  Highest Continuity Errors
  *************************
  Node HS02004842 (30.51%)
  Node YS02001774 (26.30%)
  Node YS02001884 (24.93%)
  Node YSB1171 (7.78%)
  Node YS02001625 (6.30%)
  
  
  ***************************
  Time-Step Critical Elements
  ***************************
  Link 3 (62.94%)
  Link YS02001793JiankangQianchi (24.40%)
  Link WS02006280WS02006229 (4.52%)
  Link WS02006256WS02006235 (1.06%)
  
  
  ********************************
  Highest Flow Instability Indexes
  ********************************
  Link WS02006113WS02006111 (59)
  Link WS02006111WS02006112 (26)
  Link YS02001629YS02163301 (9)
  Link YS02164001YS02001641 (8)
  Link YS02163301YS02001633 (8)
  
  
  *************************
  Routing Time Step Summary
  *************************
  Minimum Time Step           :     0.52 sec
  Average Time Step           :     1.78 sec
  Maximum Time Step           :     5.00 sec
  Percent in Steady State     :    -0.00
  Average Iterations per Step :     2.80
  Percent Not Converging      :     8.08
  
  
  ***************************
  Subcatchment Runoff Summary
  ***************************
  
  ------------------------------------------------------------------------------------------------------------------------------
                            Total      Total      Total      Total     Imperv       Perv      Total       Total     Peak  Runoff
                           Precip      Runon       Evap      Infil     Runoff     Runoff     Runoff      Runoff   Runoff   Coeff
  Subcatchment                 mm         mm         mm         mm         mm         mm         mm    10^6 ltr      LPS
  ------------------------------------------------------------------------------------------------------------------------------
  sub0                       5.37       0.00       0.00       0.38       3.73       0.00       3.73        0.00     1.27   0.695
  sub1                       5.37       0.00       0.00       0.59       3.53       0.00       3.53        0.02     6.53   0.657
  sub2                       5.37       0.00       0.00       1.99       2.48       0.00       2.48        0.02     5.75   0.462
  sub3                       5.37       0.00       0.00       1.99       2.45       0.00       2.45        0.06    11.75   0.455
  sub4                       5.37       0.00       0.00       0.59       3.39       0.00       3.39        0.07    13.11   0.632
  sub5                       5.37       0.00       0.00       0.38       3.69       0.00       3.69        0.04    11.61   0.686
  sub7                       5.37       0.00       0.00       0.48       3.64       0.00       3.64        0.01     4.14   0.677
  sub8                       5.37       0.00       0.00       0.48       3.63       0.00       3.63        0.02     7.27   0.675
  sub9                       5.37       0.00       0.00       0.48       3.63       0.00       3.63        0.02     5.38   0.675
  sub10                      5.37       0.00       0.00       0.43       3.65       0.00       3.65        0.04    11.61   0.680
  sub11                      5.37       0.00       0.00       0.43       3.67       0.00       3.67        0.04    13.69   0.683
  sub12                      5.37       0.00       0.00       0.70       3.49       0.00       3.49        0.03    11.71   0.649
  sub14                      5.37       0.00       0.00       0.48       3.62       0.00       3.62        0.03    10.51   0.674
  sub15                      5.37       0.00       0.00       1.61       2.78       0.00       2.78        0.05    14.25   0.518
  sub16                      5.37       0.00       0.00       1.77       2.68       0.00       2.68        0.03    10.26   0.499
  sub17                      5.37       0.00       0.00       1.72       2.72       0.00       2.72        0.02     8.28   0.506
  sub22                      5.37       0.00       0.00       2.31       2.28       0.00       2.28        0.14    46.88   0.423
  sub23                      5.37       0.00       0.00       1.99       2.52       0.00       2.52        0.12    39.98   0.468
  sub60                      5.37       0.00       0.00       0.64       2.37       0.00       2.37        0.72    64.64   0.442
  sub61                      5.37       0.00       0.00       0.91       2.56       0.00       2.56        0.79    81.69   0.477
  sub62                      5.37       0.00       0.00       0.43       2.74       0.00       2.74        0.84    83.30   0.510
  sub63                      5.37       0.00       0.00       1.56       2.29       0.00       2.29        0.69    76.49   0.426
  sub64                      5.37       0.00       0.00       0.81       2.27       0.00       2.27        0.69    61.36   0.422
  sub65                      5.37       0.00       0.00       0.70       2.29       0.00       2.29        0.71    62.22   0.427
  sub66                      5.37       0.00       0.00       1.56       1.98       0.00       1.98        0.61    56.37   0.369
  sub67                      5.37       0.00       0.00       0.43       3.04       0.00       3.04        0.94   107.71   0.565
  sub68                      5.37       0.00       0.00       0.75       2.73       0.00       2.73        0.84    90.50   0.508
  sub69                      5.37       0.00       0.00       0.81       2.97       0.00       2.97        0.69    90.66   0.553
  sub70                      5.37       3.03       0.00       2.86       3.59       0.00       3.59        0.82    70.94   0.427
  sub71                      5.37       0.00       0.00       0.43       2.61       0.00       2.61        0.62    57.99   0.486
  sub72                      5.37       0.00       0.00       0.38       1.81       0.00       1.81        0.37    26.99   0.337
  sub73                      5.37       3.49       0.00       3.01       3.60       0.00       3.60        0.85    60.66   0.406
  sub74                      5.37       0.00       0.00       4.03       0.90       0.00       0.90        0.36    50.75   0.167
  
  
  ******************
  Node Depth Summary
  ******************
  
  ---------------------------------------------------------------------------------
                                 Average  Maximum  Maximum  Time of Max    Reported
                                   Depth    Depth      HGL   Occurrence   Max Depth
  Node                 Type       Meters   Meters   Meters  days hr:min      Meters
  ---------------------------------------------------------------------------------
  WS02001211           JUNCTION     0.60     0.62     5.46     0  02:44        0.62
  WS02001212           JUNCTION     0.33     0.35     5.41     0  02:42        0.35
  WS02001213           JUNCTION     0.53     0.59     5.35     0  02:41        0.59
  WS02003069           JUNCTION     0.33     0.43     5.01     0  02:40        0.43
  WS02003072           JUNCTION     0.40     0.50     4.87     0  02:41        0.50
  WS02003073           JUNCTION     0.23     0.30     4.36     0  02:42        0.30
  WS02003060           JUNCTION     0.30     0.38     5.31     0  02:39        0.38
  WS02003066           JUNCTION     0.17     0.25     5.80     0  02:38        0.25
  WS02003059           JUNCTION     0.59     0.66     5.34     0  02:41        0.66
  WS02003067           JUNCTION     0.44     0.61     5.93     0  02:37        0.61
  WS02004401           JUNCTION     0.52     0.70     6.70     0  02:33        0.70
  WS02004402           JUNCTION     0.55     0.73     6.69     0  02:33        0.73
  WS02004403           JUNCTION     0.57     0.75     6.68     0  02:33        0.75
  WS02004404           JUNCTION     0.65     0.83     6.68     0  02:33        0.83
  WS02004406           JUNCTION     0.66     0.84     6.67     0  02:33        0.84
  WS02004409           JUNCTION     0.33     0.51     6.28     0  02:36        0.51
  WS02004410           JUNCTION     0.35     0.53     6.25     0  02:36        0.53
  WS02004411           JUNCTION     0.38     0.55     6.23     0  02:37        0.55
  WS02004412           JUNCTION     0.40     0.57     6.21     0  02:37        0.57
  WS02004413           JUNCTION     0.55     0.74     6.21     0  02:37        0.74
  WS02004405           JUNCTION     0.65     0.82     6.67     0  02:33        0.82
  WS02006109           JUNCTION     0.57     0.77     7.39     0  02:27        0.77
  WS02006110           JUNCTION     0.58     0.77     7.35     0  02:27        0.77
  WS02006111           JUNCTION     0.15     0.23     6.93     0  02:28        0.23
  WS02006112           JUNCTION     0.66     0.87     6.75     0  02:32        0.87
  WS02006113           JUNCTION     0.23     0.35     7.25     0  02:28        0.35
  WS02006115           JUNCTION     0.40     0.58     6.72     0  02:32        0.58
  WS02006116           JUNCTION     0.48     0.67     6.71     0  02:32        0.67
  WS02006230           JUNCTION     0.48     0.69     7.44     0  02:27        0.69
  WS02006231           JUNCTION     0.29     0.38     7.50     0  02:30        0.38
  WS02006232           JUNCTION     0.41     0.50     7.54     0  02:31        0.50
  WS02006234           JUNCTION     0.30     0.40     7.55     0  02:31        0.40
  WS02006235           JUNCTION     0.33     0.42     7.58     0  02:31        0.42
  WS02006238           JUNCTION     0.35     0.44     7.58     0  02:31        0.44
  WS02006240           JUNCTION     0.21     0.29     7.59     0  02:31        0.29
  WS02006242           JUNCTION     0.23     0.32     7.59     0  02:31        0.32
  WS02006243           JUNCTION     0.10     0.18     7.60     0  02:31        0.18
  WS02006245           JUNCTION     0.07     0.15     7.64     0  02:22        0.15
  WS02006247           JUNCTION     0.08     0.18     7.68     0  02:21        0.18
  WS02006248           JUNCTION     0.05     0.13     7.72     0  02:20        0.13
  WS02006249           JUNCTION     0.08     0.18     7.78     0  02:20        0.18
  WS02006239           JUNCTION     0.28     0.38     7.59     0  02:31        0.38
  WS02006251           JUNCTION     0.06     0.15     7.82     0  02:19        0.15
  WS02006252           JUNCTION     0.00     0.00     8.24     0  00:00        0.00
  WS02006253           JUNCTION     0.10     0.21     7.86     0  02:19        0.21
  WS02006256           JUNCTION     0.90     1.15     8.09     0  00:00        1.10
  WS02004138           JUNCTION     0.14     0.14     7.39     0  00:00        0.14
  WS02004407           JUNCTION     0.15     0.23     6.55     0  02:33        0.23
  WS02006228           JUNCTION     0.55     0.76     7.41     0  02:27        0.76
  WS02006229           JUNCTION     0.52     0.73     7.43     0  02:27        0.73
  WS02006280           JUNCTION     0.06     0.14     8.41     0  02:19        0.14
  WS02006284           JUNCTION     0.35     0.47     8.87     0  02:19        0.47
  WS02006287           JUNCTION     0.09     0.20     9.15     0  02:19        0.20
  WSF200               JUNCTION     0.14     0.24     5.47     0  02:37        0.24
  HS02004901           JUNCTION     0.11     0.22    10.04     0  02:17        0.22
  HS02004881           JUNCTION     0.01     0.02     9.05     0  02:18        0.02
  HS02004876           JUNCTION     0.04     0.10     9.13     0  02:17        0.10
  HS02004870           JUNCTION     0.01     0.04     9.32     0  02:19        0.04
  HS02004862           JUNCTION     0.02     0.04     9.43     0  02:20        0.04
  HS02004856           JUNCTION     0.07     0.10     9.53     0  02:19        0.10
  HS02004852           JUNCTION     0.01     0.02     9.54     0  02:20        0.02
  HS02004848           JUNCTION     0.01     0.02     9.63     0  02:18        0.02
  HS02004842           JUNCTION     0.32     0.36     9.63     0  02:18        0.36
  HS02004837           JUNCTION     0.03     0.05     9.63     0  02:18        0.05
  HS02004830           JUNCTION     0.04     0.06     9.53     0  02:18        0.06
  HS02004824           JUNCTION     0.02     0.04     9.44     0  02:22        0.04
  HS02004817           JUNCTION     0.41     0.51     9.36     0  02:19        0.51
  HS02004807           JUNCTION     0.11     0.19     9.36     0  02:19        0.19
  HS02004802           JUNCTION     0.15     0.23     9.36     0  02:19        0.23
  HS02004799           JUNCTION     0.11     0.24     9.45     0  02:17        0.24
  HS02004792           JUNCTION     0.03     0.09     9.61     0  02:16        0.09
  HS02004788           JUNCTION     0.02     0.07     9.97     0  02:18        0.07
  HS02004785           JUNCTION     0.04     0.13    10.03     0  02:17        0.13
  HS02004777           JUNCTION     0.13     0.24    10.04     0  02:17        0.24
  HS02004770           JUNCTION     0.11     0.21    10.04     0  02:17        0.21
  HS02004480           JUNCTION     0.07     0.19     9.43     0  02:17        0.19
  HS02004479           JUNCTION     0.11     0.22     9.43     0  02:18        0.22
  HS02004478           JUNCTION     0.05     0.12     9.34     0  02:19        0.12
  YS02001745           JUNCTION     0.28     0.84     8.36     0  06:44        0.84
  YS02001748           JUNCTION     0.56     1.28     8.36     0  06:44        1.28
  YS02001751           JUNCTION     0.72     1.48     8.36     0  06:44        1.48
  YS02001754           JUNCTION     0.95     1.75     8.36     0  06:44        1.75
  YS02001762           JUNCTION     1.13     1.96     8.36     0  06:44        1.96
  YS02001765           JUNCTION     1.09     1.91     8.36     0  06:44        1.91
  YS02001767           JUNCTION     1.06     1.87     8.36     0  06:44        1.87
  YS02001770           JUNCTION     1.05     1.86     8.36     0  06:44        1.86
  YS02001774           JUNCTION     1.12     1.94     8.36     0  06:44        1.94
  YS02001779           JUNCTION     0.89     1.67     8.36     0  06:44        1.67
  YS02001882           JUNCTION     0.28     0.42     7.13     0  02:54        0.42
  YS02001884           JUNCTION     0.37     0.52     7.13     0  02:53        0.52
  YS02001759           JUNCTION     1.17     1.99     8.36     0  06:44        1.99
  YS02001887           JUNCTION     0.44     0.60     7.13     0  02:53        0.60
  YS02001890           JUNCTION     0.47     0.63     7.13     0  02:54        0.63
  YS02001898           JUNCTION     0.25     0.38     7.12     0  02:54        0.38
  YS02001901           JUNCTION     0.36     0.51     7.12     0  02:55        0.51
  YS02001904           JUNCTION     0.34     0.48     7.11     0  02:55        0.48
  YS02001907           JUNCTION     0.65     0.83     7.12     0  02:54        0.83
  YS02001910           JUNCTION     0.45     0.61     7.12     0  02:54        0.61
  YS02001915           JUNCTION     0.27     0.40     7.12     0  02:54        0.40
  YS02001918           JUNCTION     0.07     0.09     7.16     0  03:03        0.09
  YS02001619           JUNCTION     0.69     1.42     8.35     0  06:34        1.42
  YS02001629           JUNCTION     1.01     1.80     8.35     0  06:34        1.80
  YS02001641           JUNCTION     1.10     1.92     8.35     0  06:34        1.92
  YS02001644           JUNCTION     1.11     1.92     8.35     0  06:34        1.92
  YS02001652           JUNCTION     0.96     1.76     8.36     0  06:44        1.76
  YS02001655           JUNCTION     0.75     1.51     8.36     0  06:44        1.51
  YS02001920           JUNCTION     0.16     0.19     7.20     0  03:02        0.19
  YS02001923           JUNCTION     0.06     0.08     7.34     0  03:02        0.08
  YS02001926           JUNCTION     0.13     0.16     7.61     0  03:01        0.16
  YS02001929           JUNCTION     0.06     0.08     7.77     0  03:01        0.08
  YS02001658           JUNCTION     0.51     1.21     8.36     0  06:44        1.21
  YS02001661           JUNCTION     0.37     0.95     8.36     0  06:44        0.95
  YS02001664           JUNCTION     0.14     0.43     8.36     0  06:44        0.43
  YS02001622           JUNCTION     0.71     1.45     8.35     0  06:34        1.45
  YS02001633           JUNCTION     1.09     1.90     8.35     0  06:34        1.90
  YS02001649           JUNCTION     1.14     1.97     8.36     0  06:44        1.97
  YS02001757           JUNCTION     1.26     2.10     8.36     0  06:44        2.10
  YS02001895           JUNCTION     0.25     0.38     7.13     0  02:54        0.38
  YS02001625           JUNCTION     0.97     1.75     8.35     0  06:34        1.75
  YS02163301           JUNCTION     1.03     1.84     8.35     0  06:34        1.84
  YS02163601           JUNCTION     1.14     1.95     8.35     0  06:34        1.95
  YS02164001           JUNCTION     1.09     1.89     8.35     0  06:34        1.89
  YS02001647           JUNCTION     0.95     1.74     8.35     0  06:44        1.74
  YSB1154              JUNCTION     0.24     0.37     9.43     0  02:18        0.37
  YSB6556              JUNCTION     0.14     0.26     9.43     0  02:17        0.26
  YSB1174              JUNCTION     0.19     0.32     9.43     0  02:18        0.32
  YSB1171              JUNCTION     0.38     0.52     9.43     0  02:17        0.52
  YS02006553           JUNCTION     0.66     0.83     7.11     0  02:54        0.83
  YS02006561           JUNCTION     0.14     0.21     6.87     0  02:55        0.21
  YS02006556           JUNCTION     0.63     0.80     7.11     0  02:55        0.80
  YS02006558           JUNCTION     0.68     0.84     7.11     0  02:55        0.84
  YS02001783           JUNCTION     0.24     0.37     6.51     0  02:55        0.37
  YS02001784           JUNCTION     0.27     0.40     6.47     0  02:55        0.40
  YS02001786           JUNCTION     0.23     0.34     6.37     0  02:56        0.34
  YS02001788           JUNCTION     0.17     0.25     6.23     0  02:56        0.25
  YS02001790           JUNCTION     0.20     0.31     5.95     0  02:56        0.31
  YS02001791           JUNCTION     0.13     0.20     5.67     0  02:56        0.20
  YS02001793           JUNCTION     0.09     0.13     4.96     0  02:56        0.13
  WS02004139           JUNCTION     0.54     0.56     5.47     0  02:44        0.56
  WSC                  OUTFALL      0.23     0.30     0.97     0  02:42        0.30
  3                    OUTFALL      0.05     0.13     6.13     0  00:00        0.10
  4                    OUTFALL      0.00     0.00     7.00     0  00:00        0.00
  5                    OUTFALL      0.00     0.00     5.00     0  00:00        0.00
  JK-storage           STORAGE      0.07     3.00     3.80     0  00:00        2.70
  CC-storage           STORAGE      0.58     1.36     8.36     0  06:42        1.36
  XR-storage           STORAGE      7.24     7.72     5.72     0  02:45        7.72
  
  
  *******************
  Node Inflow Summary
  *******************
  
  -------------------------------------------------------------------------------------------------
                                  Maximum  Maximum                  Lateral       Total        Flow
                                  Lateral    Total  Time of Max      Inflow      Inflow     Balance
                                   Inflow   Inflow   Occurrence      Volume      Volume       Error
  Node                 Type           LPS      LPS  days hr:min    10^6 ltr    10^6 ltr     Percent
  -------------------------------------------------------------------------------------------------
  WS02001211           JUNCTION      7.35   197.94     0  02:55       0.207        5.54       0.549
  WS02001212           JUNCTION      0.00   198.27     0  02:55           0        5.51       0.287
  WS02001213           JUNCTION      0.00   198.56     0  02:55           0        5.49       0.325
  WS02003069           JUNCTION      0.32   546.47     0  02:40     0.00902        9.13       0.194
  WS02003072           JUNCTION      0.00   546.45     0  02:40           0        9.11       0.261
  WS02003073           JUNCTION      1.82   548.26     0  02:41      0.0514        9.14       0.272
  WS02003060           JUNCTION     16.53   546.13     0  02:39       0.466        9.14       0.185
  WS02003066           JUNCTION      0.00   334.74     0  02:37           0        3.23       0.070
  WS02003059           JUNCTION      0.00   199.26     0  02:54           0        5.48       0.558
  WS02003067           JUNCTION      0.00   334.73     0  02:37           0        3.23       0.174
  WS02004401           JUNCTION      0.00   339.51     0  02:31           0        3.37       0.396
  WS02004402           JUNCTION      0.00   338.78     0  02:31           0        3.36       0.392
  WS02004403           JUNCTION      0.00   338.35     0  02:32           0        3.35       0.374
  WS02004404           JUNCTION      0.16   338.26     0  02:32     0.00457        3.34       0.301
  WS02004406           JUNCTION      0.00   338.06     0  02:33           0        3.31       0.743
  WS02004409           JUNCTION      0.00   338.00     0  02:34           0        3.29       0.197
  WS02004410           JUNCTION      0.00   336.73     0  02:34           0        3.28       0.251
  WS02004411           JUNCTION      0.00   335.78     0  02:35           0        3.27       0.284
  WS02004412           JUNCTION      0.00   335.18     0  02:36           0        3.26       0.343
  WS02004413           JUNCTION      0.00   334.84     0  02:37           0        3.25       0.561
  WS02004405           JUNCTION      0.04   338.16     0  02:32     0.00107        3.33       0.451
  WS02006109           JUNCTION      1.23   340.22     0  02:27      0.0347        3.42       0.417
  WS02006110           JUNCTION      0.00   340.18     0  02:27           0        3.41       0.343
  WS02006111           JUNCTION      0.00   345.49     0  02:27           0        3.39       0.058
  WS02006112           JUNCTION      8.28   345.89     0  02:28      0.0233        3.41       0.589
  WS02006113           JUNCTION      0.00   340.16     0  02:27           0         3.4       0.111
  WS02006115           JUNCTION      0.00   343.31     0  02:28           0        3.39       0.291
  WS02006116           JUNCTION      0.00   340.73     0  02:30           0        3.38       0.300
  WS02006230           JUNCTION     10.28   175.07     0  02:35        0.29        2.59       0.371
  WS02006231           JUNCTION      0.00   164.25     0  02:35           0         2.3       0.052
  WS02006232           JUNCTION      0.00   163.88     0  02:35           0        2.31       0.390
  WS02006234           JUNCTION      0.00   163.58     0  02:34           0        2.31       0.032
  WS02006235           JUNCTION      0.00   166.25     0  00:01           0        2.34       0.266
  WS02006238           JUNCTION      0.00    88.92     0  00:00           0       0.173       1.485
  WS02006240           JUNCTION      0.00    40.17     0  00:02           0        0.15       1.196
  WS02006242           JUNCTION      0.00    34.74     0  02:19           0       0.142       1.491
  WS02006243           JUNCTION      0.00    35.93     0  02:21           0       0.134      -0.532
  WS02006245           JUNCTION      0.00    35.97     0  02:21           0       0.133       0.765
  WS02006247           JUNCTION      0.00    35.97     0  02:20           0       0.133       0.085
  WS02006248           JUNCTION      0.00    35.97     0  02:20           0       0.133       0.020
  WS02006249           JUNCTION      0.00    36.03     0  02:19           0       0.133       0.269
  WS02006239           JUNCTION      0.00    71.07     0  00:01           0        0.16       1.717
  WS02006251           JUNCTION      0.08    36.08     0  02:18     0.00217       0.133       0.059
  WS02006252           JUNCTION      0.00     0.00     0  00:00           0           0       0.000 ltr
  WS02006253           JUNCTION      1.27    36.03     0  02:18     0.00302       0.131       0.112
  WS02006256           JUNCTION      0.00   300.00     0  00:00           0        2.98       0.076
  WS02004138           JUNCTION      0.00   190.00     0  00:10           0        5.36       0.074
  WS02004407           JUNCTION      0.00   338.02     0  02:33           0        3.29       0.095
  WS02006228           JUNCTION      0.00   339.01     0  02:27           0         3.4       0.258
  WS02006229           JUNCTION      0.00   339.04     0  02:26           0         3.4       0.246
  WS02006280           JUNCTION      0.00   186.84     0  02:19           0       0.826       0.009
  WS02006284           JUNCTION      0.10   186.85     0  02:19      0.0027       0.827       0.129
  WS02006287           JUNCTION      0.00   186.77     0  02:19           0       0.825       0.088
  WSF200               JUNCTION      0.00   334.73     0  02:38           0        3.23       0.053
  HS02004901           JUNCTION     10.26    10.26     0  02:11      0.0281      0.0282       6.639
  HS02004881           JUNCTION      4.14    35.06     0  02:18      0.0122       0.128       0.047
  HS02004876           JUNCTION      6.53    31.24     0  02:18      0.0235       0.117       0.452
  HS02004870           JUNCTION      7.27    24.85     0  02:18      0.0232      0.0932       0.114
  HS02004862           JUNCTION      5.95    18.09     0  02:19      0.0287      0.0702       0.241
  HS02004856           JUNCTION      5.38    12.19     0  02:18      0.0174      0.0429       3.470
  HS02004852           JUNCTION      0.00     7.16     0  02:18           0      0.0255       0.196
  HS02004848           JUNCTION     11.75    11.75     0  02:21      0.0551      0.0551       0.079
  HS02004842           JUNCTION      0.00     4.99     0  02:31           0      0.0426      43.907
  HS02004837           JUNCTION     17.96    22.24     0  02:17       0.219       0.249       0.327
  HS02004830           JUNCTION      0.15    22.38     0  02:18     0.00423       0.239       0.518
  HS02004824           JUNCTION     13.16    35.37     0  02:21      0.0722        0.31       0.174
  HS02004817           JUNCTION      0.60    35.97     0  02:22      0.0169       0.327       5.375
  HS02004807           JUNCTION     13.69    48.40     0  02:20      0.0426       0.353       1.213
  HS02004802           JUNCTION      0.00    48.62     0  02:21           0       0.348       1.180
  HS02004799           JUNCTION     10.51   117.86     0  02:16      0.0345       0.423       0.538
  HS02004792           JUNCTION     47.16   107.60     0  02:16       0.152       0.389       0.106
  HS02004788           JUNCTION     15.92    62.64     0  02:17       0.095       0.238       0.165
  HS02004785           JUNCTION      0.15    47.15     0  02:16     0.00423       0.145       0.332
  HS02004777           JUNCTION      0.03    47.61     0  02:14    0.000846       0.146       3.684
  HS02004770           JUNCTION     39.98    48.91     0  02:12        0.12       0.146       2.161
  HS02004480           JUNCTION      0.00   139.05     0  02:17           0       0.492       0.145
  HS02004479           JUNCTION      0.00    21.51     0  02:19           0      0.0817       0.900
  HS02004478           JUNCTION      0.00   186.76     0  02:18           0       0.825       0.076
  YS02001745           JUNCTION     64.65   141.59     0  04:11       0.719       0.747       1.550
  YS02001748           JUNCTION      0.04   186.90     0  04:05     0.00127       0.747       3.305
  YS02001751           JUNCTION      0.01   156.82     0  04:11     0.00031       0.697       3.528
  YS02001754           JUNCTION      0.26   103.41     0  04:07     0.00733       0.671       3.869
  YS02001762           JUNCTION      0.00   100.43     0  03:09           0       0.768       2.897
  YS02001765           JUNCTION      0.00    99.56     0  02:40           0       0.771       3.272
  YS02001767           JUNCTION      0.54   124.01     0  03:12      0.0151       0.793       4.731
  YS02001770           JUNCTION     83.46   119.10     0  03:11       0.846       0.876       3.821
  YS02001774           JUNCTION      0.00    54.61     0  03:11           0       0.098      35.678
  YS02001779           JUNCTION      0.01    54.79     0  03:11    0.000141      0.0428      54.935
  YS02001882           JUNCTION      0.00     3.63     0  02:08           0     0.00472      51.970
  YS02001884           JUNCTION      0.00    10.62     0  02:08           0       0.019      33.212
  YS02001759           JUNCTION     81.73   182.22     0  02:48       0.791        1.52       1.573
  YS02001887           JUNCTION    108.16   108.16     0  02:43       0.949       0.959       0.737
  YS02001890           JUNCTION      0.00   107.48     0  02:46           0       0.936       0.829
  YS02001898           JUNCTION      0.00   106.98     0  02:49           0       0.924       0.225
  YS02001901           JUNCTION      0.00   106.84     0  02:48           0       0.924       0.585
  YS02001904           JUNCTION      0.00   106.52     0  02:50           0       0.923       0.545
  YS02001907           JUNCTION      0.00   193.24     0  02:56           0        1.97       1.119
  YS02001910           JUNCTION      0.00    87.96     0  03:00           0        1.06       0.951
  YS02001915           JUNCTION     58.01    87.61     0  03:01       0.617        1.06       0.414
  YS02001918           JUNCTION      0.00    29.86     0  03:02           0       0.447       0.235
  YS02001619           JUNCTION     56.37    72.89     0  04:09       0.608       0.612       2.097
  YS02001629           JUNCTION      0.00   161.57     0  04:07           0       0.555       5.626
  YS02001641           JUNCTION      0.00   122.70     0  03:10           0        1.13       1.940
  YS02001644           JUNCTION     61.40   189.87     0  06:48        0.69        2.05       1.325
  YS02001652           JUNCTION      0.00   102.70     0  03:02           0       0.623       3.925
  YS02001655           JUNCTION      0.15   162.53     0  04:09     0.00434       0.657       3.887
  YS02001920           JUNCTION      2.87    29.87     0  03:02      0.0809       0.449       0.437
  YS02001923           JUNCTION      0.04    27.01     0  03:01     0.00106       0.369       0.076
  YS02001926           JUNCTION      0.05    27.03     0  03:01     0.00147        0.37       0.548
  YS02001929           JUNCTION     26.99    26.99     0  03:01       0.368       0.368       0.074
  YS02001658           JUNCTION      0.00   212.29     0  04:01           0       0.732       3.362
  YS02001661           JUNCTION      0.00   178.14     0  04:02           0       0.746       3.035
  YS02001664           JUNCTION     76.49    76.49     0  02:45       0.692       0.694       0.748
  YS02001622           JUNCTION      0.00    98.06     0  04:10           0       0.627       5.402
  YS02001633           JUNCTION     62.42   132.29     0  03:11       0.711        1.19       2.787
  YS02001649           JUNCTION      0.00   275.30     0  02:51           0        2.34       1.644
  YS02001757           JUNCTION      0.00   452.81     0  02:55           0        4.22       2.258
  YS02001895           JUNCTION      0.00   107.14     0  02:46           0       0.928       0.389
  YS02001625           JUNCTION      0.00   162.05     0  04:07           0        0.62       6.723
  YS02163301           JUNCTION      0.00    74.05     0  03:06           0       0.506       5.095
  YS02163601           JUNCTION      0.11   131.44     0  03:05      0.0031        1.15       2.713
  YS02164001           JUNCTION      0.00   132.90     0  03:05           0        1.13       1.896
  YS02001647           JUNCTION      0.00   186.30     0  03:01           0        1.81       1.579
  YSB1154              JUNCTION     11.61    11.61     0  02:15      0.0418      0.0431       3.462
  YSB6556              JUNCTION      0.00    11.58     0  02:18           0      0.0442       2.899
  YSB1174              JUNCTION     11.71    11.71     0  02:10      0.0305      0.0315       4.245
  YSB1171              JUNCTION      0.00    21.63     0  02:17           0      0.0812       8.436
  YS02006553           JUNCTION      0.00   193.30     0  02:56           0        1.96       0.727
  YS02006561           JUNCTION      0.00   283.73     0  02:55           0        2.77       0.023
  YS02006556           JUNCTION      0.00   193.41     0  03:02           0        1.96       0.523
  YS02006558           JUNCTION     91.38   283.74     0  02:55       0.864         2.8       0.160
  YS02001783           JUNCTION      0.00   283.73     0  02:55           0        2.77       0.052
  YS02001784           JUNCTION      1.06   284.79     0  02:55      0.0299         2.8       0.087
  YS02001786           JUNCTION      0.06   284.84     0  02:55     0.00159         2.8       0.084
  YS02001788           JUNCTION      0.07   284.90     0  02:56       0.002         2.8       0.049
  YS02001790           JUNCTION      0.15   285.05     0  02:56     0.00437         2.8       0.060
  YS02001791           JUNCTION      0.00   285.05     0  02:56           0         2.8       0.030
  YS02001793           JUNCTION      0.00   285.05     0  02:56           0         2.8       0.014
  WS02004139           JUNCTION      0.32   191.11     0  00:00     0.00905        5.36       0.590
  WSC                  OUTFALL       0.00   548.21     0  02:42           0        9.11       0.000
  3                    OUTFALL       0.00   250.55     0  00:00           0       0.786       0.000
  4                    OUTFALL       0.00     0.00     0  00:00           0           0       0.000 ltr
  5                    OUTFALL       0.00     0.00     0  00:00           0           0       0.000 ltr
  JK-storage           STORAGE       0.00   285.05     0  02:56           0        2.95      -0.946
  CC-storage           STORAGE       0.00   444.23     0  03:00           0         3.9       1.692
  XR-storage           STORAGE     305.10   305.10     0  02:53        6.84        7.44      -0.000
  
  
  **********************
  Node Surcharge Summary
  **********************
  
  Surcharging occurs when water rises above the top of the highest conduit.
  ---------------------------------------------------------------------
                                               Max. Height   Min. Depth
                                   Hours       Above Crown    Below Rim
  Node                 Type      Surcharged         Meters       Meters
  ---------------------------------------------------------------------
  YS02001748           JUNCTION        2.36          0.201        0.989
  YS02001751           JUNCTION        3.45          0.478        0.722
  YS02001754           JUNCTION        4.09          0.699        0.451
  YS02001762           JUNCTION        4.88          0.958        0.192
  YS02001765           JUNCTION        4.69          0.908        0.192
  YS02001767           JUNCTION        4.58          0.869        0.161
  YS02001770           JUNCTION        4.47          0.833        0.087
  YS02001774           JUNCTION        4.82          0.936        0.114
  YS02001779           JUNCTION        4.00          0.672        0.008
  YS02001759           JUNCTION        5.00          0.993        0.217
  YS02001619           JUNCTION        3.28          0.424        0.186
  YS02001629           JUNCTION        3.29          0.424        0.046
  YS02001641           JUNCTION        4.77          0.915        0.185
  YS02001644           JUNCTION        4.79          0.920        0.000
  YS02001652           JUNCTION        4.18          0.730        0.400
  YS02001655           JUNCTION        3.54          0.506        0.694
  YS02001658           JUNCTION        2.43          0.214        1.086
  YS02001622           JUNCTION        3.37          0.449        0.171
  YS02001633           JUNCTION        4.63          0.879        0.181
  YS02001649           JUNCTION        4.92          0.966        0.084
  YS02001757           JUNCTION        5.24          1.096        0.114
  YS02001625           JUNCTION        4.26          0.749        0.031
  YS02163301           JUNCTION        4.51          0.836        0.194
  YS02163601           JUNCTION        4.91          0.955        0.125
  YS02164001           JUNCTION        4.69          0.894        0.206
  YS02001647           JUNCTION        4.24          0.744        0.156
  
  
  *********************
  Node Flooding Summary
  *********************
  
  Flooding refers to all water that overflows a node, whether it ponds or not.
  --------------------------------------------------------------------------
                                                             Total   Maximum
                                 Maximum   Time of Max       Flood    Ponded
                        Hours       Rate    Occurrence      Volume     Depth
  Node                 Flooded       LPS   days hr:min    10^6 ltr    Meters
  --------------------------------------------------------------------------
  YS02001644              1.27    189.86      0  06:48       0.461     0.000
  XR-storage              5.07    115.10      0  02:53       1.160     0.000
  
  
  **********************
  Storage Volume Summary
  **********************
  
  --------------------------------------------------------------------------------------------------
                         Average     Avg  Evap Exfil       Maximum     Max    Time of Max    Maximum
                          Volume    Pcnt  Pcnt  Pcnt        Volume    Pcnt     Occurrence    Outflow
  Storage Unit           1000 m3    Full  Loss  Loss       1000 m3    Full    days hr:min        LPS
  --------------------------------------------------------------------------------------------------
  JK-storage               0.004       1     0     0         0.151      52       0  00:00     300.00
  CC-storage               1.604      10     0     0         3.798      24       0  06:42      74.52
  XR-storage               0.869      94     0     0         0.926     100       0  02:45     190.00
  
  
  ***********************
  Outfall Loading Summary
  ***********************
  
  -----------------------------------------------------------
                         Flow       Avg       Max       Total
                         Freq      Flow      Flow      Volume
  Outfall Node           Pcnt       LPS       LPS    10^6 ltr
  -----------------------------------------------------------
  WSC                   99.99    368.03    548.21       9.113
  3                     63.82     95.73    250.55       0.786
  4                      0.00      0.00      0.00       0.000
  5                      0.00      0.00      0.00       0.000
  -----------------------------------------------------------
  System                40.95    463.76    691.51       9.898
  
  
  ********************
  Link Flow Summary
  ********************
  
  -----------------------------------------------------------------------------
                                 Maximum  Time of Max   Maximum    Max/    Max/
                                  |Flow|   Occurrence   |Veloc|    Full    Full
  Link                 Type          LPS  days hr:min     m/sec    Flow   Depth
  -----------------------------------------------------------------------------
  WS02003066WSF200     CONDUIT    334.73     0  02:38      2.44    0.06    0.18
  WS02006287WS02006284 CONDUIT    186.75     0  02:19      1.57    0.09    0.21
  WS02006284WS02006280 CONDUIT    186.84     0  02:19      1.81    0.08    0.19
  WS02006280WS02006229 CONDUIT    186.85     0  02:19      2.91    0.04    0.14
  WS02006229WS02006228 CONDUIT    339.01     0  02:27      0.83    1.12    0.91
  WS02006256WS02006235 CONDUIT    166.25     0  00:01      2.58    1.76    1.00
  WS02006253WS02006251 CONDUIT     36.01     0  02:18      0.47    0.11    0.25
  WS02006252WS02006251 CONDUIT      0.00     0  00:00      0.00    0.00    0.00
  WS02006251WS02006249 CONDUIT     36.03     0  02:19      0.52    0.10    0.24
  WS02006249WS02006248 CONDUIT     35.97     0  02:20      0.61    0.20    0.21
  WS02006248WS02006247 CONDUIT     35.97     0  02:20      0.60    0.08    0.21
  WS02006247WS02006245 CONDUIT     35.97     0  02:21      0.54    0.29    0.23
  WS02006245WS02006243 CONDUIT     35.93     0  02:21      0.67    0.11    0.22
  WS02006243WS02006242 CONDUIT     34.74     0  02:19      0.54    0.07    0.33
  WS02006242WS02006240 CONDUIT     32.69     0  02:29      0.64    0.13    0.43
  WS02006240WS02006239 CONDUIT     42.32     0  00:11      0.58    0.13    0.45
  WS02006239WS02006238 CONDUIT     71.07     0  00:01      0.67    0.23    0.57
  WS02006238WS02006235 CONDUIT     94.85     0  00:11      1.25    0.21    0.61
  WS02006235WS02006234 CONDUIT    163.58     0  02:34      0.93    1.73    0.56
  WS02006234WS02006232 CONDUIT    163.88     0  02:35      1.13    0.33    0.64
  WS02006232WS02006231 CONDUIT    164.25     0  02:35      0.67    0.34    0.62
  WS02006231WS02006230 CONDUIT    164.79     0  02:35      1.00    2.50    0.50
  WS02006230WS02006229 CONDUIT    176.24     0  02:36      0.86    3.92    0.98
  WS02006228WS02006109 CONDUIT    338.99     0  02:27      0.75    1.48    0.94
  WS02006116WS02004401 CONDUIT    339.51     0  02:31      0.73    0.47    0.68
  WS02006115WS02006116 CONDUIT    340.73     0  02:30      0.79    0.44    0.59
  WS02006113WS02006111 CONDUIT    345.49     0  02:27      2.10    0.41    0.36
  WS02006112WS02006115 CONDUIT    343.31     0  02:28      0.59    0.20    0.72
  WS02006111WS02006112 CONDUIT    340.37     0  02:28      1.32    0.16    0.64
  WS02006110WS02006113 CONDUIT    340.16     0  02:27      0.91    0.31    0.70
  WS02006109WS02006110 CONDUIT    340.18     0  02:27      0.72    0.65    0.89
  WS02004411WS02004412 CONDUIT    335.18     0  02:36      0.74    0.48    0.56
  WS02004401WS02004402 CONDUIT    338.78     0  02:31      0.77    0.41    0.71
  WS02004413WS02003067 CONDUIT    334.73     0  02:37      0.86    0.14    0.50
  WS02004412WS02004413 CONDUIT    334.84     0  02:37      0.62    0.22    0.65
  WS02004410WS02004411 CONDUIT    335.78     0  02:35      0.77    0.46    0.54
  WS02004409WS02004410 CONDUIT    336.73     0  02:34      0.83    0.44    0.52
  WS02004407WS02004409 CONDUIT    338.00     0  02:34      1.30    0.12    0.37
  WS02004406WS02004407 CONDUIT    338.02     0  02:33      0.79    0.15    0.53
  WS02004405WS02004406 CONDUIT    338.06     0  02:33      0.66    0.67    0.83
  WS02004404WS02004405 CONDUIT    338.12     0  02:32      0.84    3.31    0.83
  WS02004403WS02004404 CONDUIT    338.10     0  02:32      0.74    0.24    0.79
  WS02004402WS02004403 CONDUIT    338.35     0  02:32      0.75    0.49    0.74
  WS02004139WS02001211 CONDUIT    190.59     0  02:55      0.69    0.24    0.45
  WS02004138WS02004139 CONDUIT    190.79     0  00:00      2.94    0.04    0.32
  WS02003067WS02003066 CONDUIT    334.74     0  02:37      0.92    0.11    0.36
  WS02001213WS02003059 CONDUIT    199.26     0  02:54      0.65    0.33    0.61
  WS02001212WS02001213 CONDUIT    198.56     0  02:55      1.03    0.31    0.31
  WS02001211WS02001212 CONDUIT    198.27     0  02:55      0.54    0.15    0.48
  WS02003072WS02003073 CONDUIT    546.44     0  02:41      1.43    1.18    0.37
  WS02003069WS02003072 CONDUIT    546.45     0  02:40      1.36    0.26    0.38
  WS02003060WS02003069 CONDUIT    546.15     0  02:40      1.64    0.21    0.34
  WS02003059WS02003060 CONDUIT    200.25     0  02:54      0.67    0.13    0.52
  HS02004901HS02004770 CONDUIT      9.31     0  02:15      0.04    0.04    0.31
  HS02004876HS02004881 CONDUIT     31.29     0  02:19      0.52    0.33    0.09
  HS02004870HS02004876 CONDUIT     24.83     0  02:19      0.37    0.02    0.10
  HS02004842HS02004848 CONDUIT      4.99     0  02:31      0.03    0.00    0.27
  HS02004837HS02004842 CONDUIT      5.16     0  02:31      0.41    0.00    0.29
  HS02004830HS02004837 CONDUIT     22.23     0  02:18      0.43    0.02    0.07
  HS02004824HS02004830 CONDUIT     22.37     0  02:19      0.47    0.03    0.07
  HS02004817HS02004824 CONDUIT     35.37     0  02:22      0.17    0.02    0.39
  HS02004770HS02004777 CONDUIT     47.58     0  02:14      0.21    0.09    0.32
  HS02004799HS02004480 CONDUIT    117.65     0  02:17      0.56    0.15    0.30
  HS02004792HS02004799 CONDUIT    107.55     0  02:16      0.65    0.07    0.24
  HS02004788HS02004792 CONDUIT     62.59     0  02:18      0.80    0.04    0.11
  HS02004785HS02004788 CONDUIT     47.07     0  02:18      0.49    0.35    0.14
  HS02004777HS02004785 CONDUIT     47.00     0  02:16      0.26    0.06    0.26
  HS02004480HS02004478 CONDUIT    138.95     0  02:18      0.92    0.59    0.22
  HS02004479HS02004480 CONDUIT     21.74     0  02:20      0.15    0.02    0.29
  HS02004862HS02004870 CONDUIT     18.05     0  02:20      0.45    0.02    0.06
  HS02004848HS02004852 CONDUIT      7.16     0  02:18      0.30    0.01    0.03
  HS02004856HS02004862 CONDUIT     12.17     0  02:19      0.33    0.01    0.05
  HS02004852HS02004856 CONDUIT      7.13     0  02:20      0.11    0.01    0.09
  HS02004802HS02004478 CONDUIT     48.91     0  02:22      0.29    0.04    0.24
  HS02004478WS02006287 CONDUIT    186.77     0  02:19      1.26    0.05    0.16
  HS02004817HS02004807 CONDUIT     36.40     0  02:23      0.10    0.02    0.50
  HS02004807HS02004802 CONDUIT     48.62     0  02:21      0.24    0.09    0.29
  YS02001759YS02001757 CONDUIT    176.33     0  03:09      0.22    0.13    1.00
  YS02001762YS02001759 CONDUIT    100.50     0  02:48      0.17    0.12    1.00
  YS02001765YS02001762 CONDUIT    100.43     0  03:09      0.23    0.09    1.00
  YS02001770YS02001767 CONDUIT    123.48     0  03:12      0.32    0.49    1.00
  YS02001774YS02001770 CONDUIT     54.61     0  03:11      0.14    0.03    1.00
  YS02001779YS02001774 CONDUIT     54.78     0  03:11      0.07    0.03    1.00
  YS02001649YS02001757 CONDUIT    257.06     0  02:57      0.33    0.16    1.00
  YS02001767YS02001765 CONDUIT     99.56     0  02:40      0.26    0.13    1.00
  YS02006561YS02001783 CONDUIT    283.73     0  02:55      1.74    0.15    0.36
  YS02001783YS02001784 CONDUIT    283.73     0  02:55      1.19    0.39    0.48
  YS02001784YS02001785 CONDUIT    284.78     0  02:55      1.26    0.66    0.46
  YS02001788YS02001790 CONDUIT    284.90     0  02:56      1.83    0.21    0.35
  YS02001790YS02001791 CONDUIT    285.05     0  02:56      2.11    0.31    0.31
  YS02001791YS02001793 CONDUIT    285.05     0  02:56      3.83    0.12    0.21
  YS02001910YS02001907 CONDUIT     88.11     0  03:01      0.49    0.05    0.71
  YS02001786YS02001788 CONDUIT    284.83     0  02:56      1.70    0.55    0.37
  YS02001915YS02001910 CONDUIT     87.96     0  03:00      0.44    0.04    0.50
  YS02001918YS02001915 CONDUIT     29.84     0  03:03      0.44    0.02    0.24
  YS02001923YS02001920 CONDUIT     27.00     0  03:02      0.42    0.01    0.14
  YS02001926YS02001923 CONDUIT     26.97     0  03:01      0.47    0.04    0.13
  YS02001929YS02001926 CONDUIT     26.97     0  03:01      0.49    0.01    0.12
  YS02001920YS02001918 CONDUIT     29.86     0  03:02      0.44    0.03    0.14
  YS02001629YS02163301 CONDUIT     74.05     0  03:06      0.11    0.09    1.00
  YS02001619YS02001622 CONDUIT     98.06     0  04:10      0.64    0.14    1.00
  YS02001622YS02001625 CONDUIT    162.05     0  04:07      0.24    0.09    1.00
  YS02001625YS02001629 CONDUIT    161.57     0  04:07      0.24    0.08    1.00
  YS02163301YS02001633 CONDUIT     74.19     0  03:11      0.10    0.07    1.00
  YS02163601YS02164001 CONDUIT    132.90     0  03:05      0.17    0.12    1.00
  YS02164001YS02001641 CONDUIT    122.70     0  03:10      0.16    0.17    1.00
  YS02001641YS02001644 CONDUIT    123.46     0  03:04      0.16    0.40    1.00
  YS02001647YS02001649 CONDUIT    190.60     0  03:09      0.25    0.10    1.00
  YS02006553YS02006556 CONDUIT    193.41     0  03:02      0.29    0.17    0.80
  YS02006556YS02006558 CONDUIT    193.60     0  03:02      0.28    0.15    0.82
  YSB6556YSB1171       CONDUIT     11.75     0  02:19      0.05    0.01    0.56
  YS02001907YS02006553 CONDUIT    193.30     0  02:56      0.24    0.23    0.90
  YS02006558YS02006561 CONDUIT    283.73     0  02:55      2.24    0.63    0.46
  YS02001633YS02163601 CONDUIT    131.33     0  03:05      0.17    0.14    1.00
  YS02001644YS02001647 CONDUIT    186.30     0  03:01      0.25    0.11    1.00
  YS02001745YS02001748 CONDUIT    186.85     0  04:05      1.37    0.07    0.92
  YS02001748YS02001751 CONDUIT    156.81     0  04:11      1.06    0.08    1.00
  YS02001751YS02001754 CONDUIT    103.15     0  04:07      0.95    0.05    1.00
  YS02001754YS02001757 CONDUIT    103.74     0  04:07      0.33    0.04    1.00
  YS02001882YS02001884 CONDUIT      3.63     0  02:08      0.06    0.00    0.44
  YS02001884YS02001887 CONDUIT     10.62     0  02:08      0.06    0.01    0.53
  YS02001890YS02001895 CONDUIT    107.14     0  02:46      0.27    0.05    0.50
  YS02001895YS02001898 CONDUIT    106.98     0  02:49      0.47    0.19    0.37
  YS02001898YS02001901 CONDUIT    106.84     0  02:48      0.32    0.07    0.45
  YS02001901YS02001904 CONDUIT    106.52     0  02:50      0.27    0.17    0.50
  YS02001904YS02001907 CONDUIT    106.55     0  02:50      0.20    0.04    0.66
  YS02001887YS02001890 CONDUIT    107.48     0  02:46      0.23    0.18    0.59
  YS02001652YS02001649 CONDUIT    113.43     0  03:01      0.32    0.06    1.00
  YS02001655YS02001652 CONDUIT    102.70     0  03:02      1.03    0.05    1.00
  YS02001658YS02001655 CONDUIT    158.65     0  03:56      1.22    0.07    1.00
  YS02001661YS02001658 CONDUIT    212.29     0  04:01      1.41    0.08    0.94
  YS02001664YS02001661 CONDUIT     76.48     0  02:45      1.06    0.02    0.69
  YSB1154YSB6556       CONDUIT     11.58     0  02:18      0.19    0.02    0.45
  YSB1174YSB1171       CONDUIT     10.87     0  02:11      0.05    0.02    0.57
  YSB1171HS02004479    CONDUIT     21.51     0  02:19      0.54    0.01    0.44
  HS02004881HS02006253 CONDUIT     35.06     0  02:18      1.60    0.01    0.03
  YS02001793JiankangQianchi CONDUIT    285.05     0  02:56     12.82    0.02    0.50
  YS02001757CaochengTiaoxuchi CONDUIT    444.23     0  03:00      0.89    0.20    1.00
  WSF200WS02003060     CONDUIT    334.81     0  02:38      1.46    0.07    0.26
  1                    CONDUIT    548.21     0  02:42      2.82    0.19    0.30
  2                    CONDUIT      0.00     0  00:00      0.00    0.00    0.00
  3                    CONDUIT    250.55     0  00:00      8.26    0.40    0.46
  4                    CONDUIT      0.00     0  00:00      0.00    0.00    0.00
  CC-Pump-1            PUMP         0.00     0  00:00              0.00
  CC-Pump-2            PUMP         0.00     0  00:00              0.00
  JK-Pump-1            PUMP       300.00     0  00:00              1.00
  JK-Pump-2            PUMP       285.05     0  02:56              0.95
  XR-Pump-1            PUMP        95.00     0  00:00              1.00
  XR-Pump-2            PUMP        95.00     0  00:00              1.00
  XR-Pump-3            PUMP         0.00     0  00:00              0.00
  XR-Pump-4            PUMP        95.00     0  00:20              1.00
  
  
  ***************************
  Flow Classification Summary
  ***************************
  
  -------------------------------------------------------------------------------------
                      Adjusted    ---------- Fraction of Time in Flow Class ---------- 
                       /Actual         Up    Down  Sub   Sup   Up    Down  Norm  Inlet 
  Conduit               Length    Dry  Dry   Dry   Crit  Crit  Crit  Crit  Ltd   Ctrl  
  -------------------------------------------------------------------------------------
  WS02003066WSF200        1.00   0.13  0.00  0.00  0.00  0.87  0.00  0.00  0.76  0.00
  WS02006287WS02006284    1.00   0.08  0.03  0.00  0.49  0.40  0.00  0.00  0.78  0.00
  WS02006284WS02006280    1.00   0.09  0.00  0.00  0.00  0.00  0.00  0.91  0.00  0.00
  WS02006280WS02006229    1.00   0.09  0.00  0.00  0.00  0.00  0.00  0.91  0.00  0.00
  WS02006229WS02006228    1.00   0.00  0.00  0.00  0.97  0.00  0.00  0.03  0.00  0.00
  WS02006256WS02006235    1.00   0.00  0.00  0.00  0.99  0.01  0.00  0.00  0.00  0.00
  WS02006253WS02006251    1.00   0.06  0.02  0.00  0.91  0.00  0.01  0.00  0.00  0.00
  WS02006252WS02006251    1.00   1.00  0.00  0.00  0.00  0.00  0.00  0.00  0.00  0.00
  WS02006251WS02006249    1.00   0.00  0.00  0.00  1.00  0.00  0.00  0.00  0.98  0.00
  WS02006249WS02006248    1.00   0.00  0.04  0.00  0.00  0.00  0.96  0.00  0.00  0.00
  WS02006248WS02006247    1.00   0.05  0.00  0.00  0.95  0.00  0.00  0.00  0.87  0.00
  WS02006247WS02006245    1.00   0.04  0.00  0.00  0.96  0.00  0.00  0.00  0.00  0.00
  WS02006245WS02006243    1.00   0.03  0.01  0.00  0.88  0.00  0.00  0.09  0.16  0.00
  WS02006243WS02006242    1.00   0.01  0.01  0.00  0.98  0.00  0.00  0.00  0.44  0.00
  WS02006242WS02006240    1.00   0.01  0.00  0.00  0.99  0.00  0.00  0.00  0.00  0.00
  WS02006240WS02006239    1.00   0.00  0.00  0.00  0.90  0.00  0.00  0.09  0.01  0.00
  WS02006239WS02006238    1.00   0.00  0.00  0.00  1.00  0.00  0.00  0.00  0.01  0.00
  WS02006238WS02006235    1.00   0.00  0.00  0.00  1.00  0.00  0.00  0.00  0.00  0.00
  WS02006235WS02006234    1.00   0.00  0.00  0.00  0.90  0.00  0.10  0.00  0.00  0.00
  WS02006234WS02006232    1.00   0.00  0.00  0.00  0.99  0.01  0.00  0.00  0.17  0.00
  WS02006232WS02006231    1.00   0.00  0.01  0.00  0.98  0.00  0.01  0.00  0.00  0.00
  WS02006231WS02006230    1.00   0.01  0.00  0.00  0.17  0.00  0.82  0.00  0.00  0.00
  WS02006230WS02006229    1.00   0.00  0.00  0.00  0.97  0.00  0.00  0.03  0.01  0.00
  WS02006228WS02006109    1.00   0.00  0.00  0.00  0.99  0.00  0.00  0.01  0.00  0.00
  WS02006116WS02004401    1.00   0.05  0.00  0.00  0.95  0.00  0.00  0.00  0.00  0.00
  WS02006115WS02006116    1.00   0.05  0.00  0.00  0.94  0.00  0.00  0.01  0.00  0.00
  WS02006113WS02006111    1.00   0.04  0.00  0.00  0.00  0.96  0.00  0.00  0.15  0.00
  WS02006112WS02006115    1.00   0.05  0.01  0.00  0.95  0.00  0.00  0.00  0.00  0.00
  WS02006111WS02006112    1.00   0.05  0.00  0.00  0.95  0.00  0.00  0.00  0.98  0.00
  WS02006110WS02006113    1.00   0.02  0.02  0.00  0.96  0.00  0.00  0.00  0.00  0.00
  WS02006109WS02006110    1.00   0.00  0.02  0.00  0.96  0.00  0.02  0.00  0.00  0.00
  WS02004411WS02004412    1.00   0.08  0.00  0.00  0.92  0.00  0.00  0.00  0.00  0.00
  WS02004401WS02004402    1.00   0.05  0.00  0.00  0.95  0.00  0.00  0.00  0.00  0.00
  WS02004413WS02003067    1.00   0.08  0.03  0.00  0.00  0.00  0.89  0.00  0.00  0.00
  WS02004412WS02004413    1.00   0.08  0.00  0.00  0.92  0.00  0.00  0.00  0.03  0.00
  WS02004410WS02004411    1.00   0.08  0.00  0.00  0.92  0.00  0.00  0.00  0.04  0.00
  WS02004409WS02004410    1.00   0.08  0.00  0.00  0.92  0.00  0.00  0.00  0.04  0.00
  WS02004407WS02004409    1.00   0.08  0.00  0.00  0.92  0.00  0.00  0.00  0.89  0.00
  WS02004406WS02004407    1.00   0.00  0.08  0.00  0.92  0.00  0.00  0.00  0.00  0.00
  WS02004405WS02004406    1.00   0.00  0.00  0.00  1.00  0.00  0.00  0.00  0.00  0.00
  WS02004404WS02004405    1.00   0.00  0.00  0.00  1.00  0.00  0.00  0.00  0.00  0.00
  WS02004403WS02004404    1.00   0.00  0.05  0.00  0.95  0.00  0.00  0.00  0.01  0.00
  WS02004402WS02004403    1.00   0.05  0.00  0.00  0.95  0.00  0.00  0.00  0.00  0.00
  WS02004139WS02001211    1.00   0.00  0.00  0.00  0.99  0.00  0.01  0.00  0.00  0.00
  WS02004138WS02004139    1.00   0.00  0.00  0.00  0.98  0.02  0.00  0.00  1.00  0.00
  WS02003067WS02003066    1.00   0.11  0.01  0.00  0.88  0.00  0.00  0.00  0.00  0.00
  WS02001213WS02003059    1.00   0.01  0.01  0.00  0.99  0.00  0.00  0.00  0.00  0.00
  WS02001212WS02001213    1.00   0.01  0.00  0.00  0.25  0.00  0.74  0.00  0.00  0.00
  WS02001211WS02001212    1.00   0.00  0.01  0.00  0.99  0.00  0.00  0.00  0.00  0.00
  WS02003072WS02003073    1.00   0.00  0.00  0.00  0.00  0.00  0.00  1.00  0.00  0.00
  WS02003069WS02003072    1.00   0.00  0.00  0.00  0.99  0.01  0.00  0.00  0.73  0.00
  WS02003060WS02003069    1.00   0.00  0.00  0.00  0.97  0.03  0.00  0.00  0.24  0.00
  WS02003059WS02003060    1.00   0.00  0.00  0.00  0.99  0.01  0.00  0.00  0.01  0.00
  HS02004901HS02004770    1.00   0.09  0.00  0.00  0.91  0.00  0.00  0.00  0.03  0.00
  HS02004876HS02004881    1.00   0.05  0.00  0.00  0.95  0.00  0.00  0.00  0.00  0.00
  HS02004870HS02004876    1.00   0.01  0.00  0.00  0.98  0.00  0.00  0.00  0.95  0.00
  HS02004842HS02004848    1.00   0.00  0.09  0.00  0.91  0.00  0.00  0.00  0.69  0.00
  HS02004837HS02004842    1.00   0.00  0.00  0.00  0.98  0.02  0.00  0.00  0.11  0.00
  HS02004830HS02004837    1.00   0.00  0.00  0.00  1.00  0.00  0.00  0.00  0.99  0.00
  HS02004824HS02004830    1.00   0.00  0.00  0.00  1.00  0.00  0.00  0.00  0.00  0.00
  HS02004817HS02004824    1.00   0.00  0.00  0.00  1.00  0.00  0.00  0.00  1.00  0.00
  HS02004770HS02004777    1.00   0.00  0.09  0.00  0.91  0.00  0.00  0.00  0.07  0.00
  HS02004799HS02004480    1.00   0.01  0.05  0.00  0.88  0.00  0.06  0.00  0.00  0.00
  HS02004792HS02004799    1.00   0.00  0.00  0.00  0.97  0.03  0.00  0.00  0.98  0.00
  HS02004788HS02004792    1.00   0.00  0.00  0.00  0.98  0.02  0.00  0.00  0.98  0.00
  HS02004785HS02004788    1.00   0.00  0.00  0.00  1.00  0.00  0.00  0.00  0.00  0.00
  HS02004777HS02004785    1.00   0.00  0.00  0.00  1.00  0.00  0.00  0.00  0.21  0.00
  HS02004480HS02004478    1.00   0.10  0.00  0.00  0.55  0.00  0.00  0.35  0.00  0.00
  HS02004479HS02004480    1.00   0.06  0.00  0.00  0.94  0.00  0.00  0.00  0.16  0.00
  HS02004862HS02004870    1.00   0.00  0.00  0.00  1.00  0.00  0.00  0.00  0.06  0.00
  HS02004848HS02004852    1.00   0.09  0.00  0.00  0.91  0.00  0.00  0.00  0.71  0.00
  HS02004856HS02004862    1.00   0.00  0.14  0.00  0.86  0.00  0.00  0.00  0.74  0.00
  HS02004852HS02004856    1.00   0.09  0.01  0.00  0.89  0.00  0.00  0.00  0.83  0.00
  HS02004802HS02004478    1.00   0.09  0.01  0.00  0.89  0.00  0.00  0.00  0.01  0.00
  HS02004478WS02006287    1.00   0.11  0.00  0.00  0.80  0.08  0.00  0.00  0.79  0.00
  HS02004817HS02004807    1.00   0.00  0.09  0.00  0.91  0.00  0.00  0.00  0.00  0.00
  HS02004807HS02004802    1.00   0.09  0.00  0.00  0.90  0.00  0.00  0.00  0.01  0.00
  YS02001759YS02001757    1.00   0.00  0.00  0.00  1.00  0.00  0.00  0.00  0.17  0.00
  YS02001762YS02001759    1.00   0.00  0.00  0.00  1.00  0.00  0.00  0.00  0.05  0.00
  YS02001765YS02001762    1.00   0.00  0.00  0.00  1.00  0.00  0.00  0.00  0.22  0.00
  YS02001770YS02001767    1.00   0.00  0.00  0.00  1.00  0.00  0.00  0.00  0.00  0.00
  YS02001774YS02001770    1.00   0.00  0.10  0.00  0.89  0.00  0.00  0.00  0.07  0.00
  YS02001779YS02001774    1.00   0.00  0.00  0.00  1.00  0.00  0.00  0.00  0.27  0.00
  YS02001649YS02001757    1.00   0.00  0.00  0.00  1.00  0.00  0.00  0.00  0.19  0.00
  YS02001767YS02001765    1.00   0.00  0.00  0.00  1.00  0.00  0.00  0.00  0.01  0.00
  YS02006561YS02001783    1.00   0.14  0.00  0.00  0.00  0.86  0.00  0.00  0.73  0.00
  YS02001783YS02001784    1.00   0.00  0.14  0.00  0.86  0.00  0.00  0.00  0.00  0.00
  YS02001784YS02001785    1.00   0.00  0.00  0.00  1.00  0.00  0.00  0.00  0.25  0.00
  YS02001788YS02001790    1.00   0.00  0.00  0.00  0.15  0.85  0.00  0.00  0.80  0.00
  YS02001790YS02001791    1.00   0.00  0.00  0.00  0.03  0.97  0.00  0.00  0.51  0.00
  YS02001791YS02001793    1.00   0.00  0.00  0.00  0.00  1.00  0.00  0.00  0.00  0.00
  YS02001910YS02001907    1.00   0.00  0.00  0.00  0.95  0.00  0.00  0.05  0.13  0.00
  YS02001786YS02001788    1.00   0.00  0.00  0.00  0.15  0.85  0.00  0.00  0.00  0.00
  YS02001915YS02001910    1.00   0.00  0.00  0.00  0.98  0.02  0.00  0.00  0.24  0.00
  YS02001918YS02001915    1.00   0.00  0.01  0.00  0.96  0.03  0.00  0.00  0.81  0.00
  YS02001923YS02001920    1.00   0.00  0.00  0.00  1.00  0.00  0.00  0.00  1.00  0.00
  YS02001926YS02001923    1.00   0.00  0.07  0.00  0.00  0.00  0.93  0.00  0.00  0.00
  YS02001929YS02001926    1.00   0.00  0.09  0.00  0.91  0.00  0.00  0.00  0.87  0.00
  YS02001920YS02001918    1.00   0.00  0.01  0.00  0.99  0.00  0.00  0.00  0.00  0.00
  YS02001629YS02163301    1.00   0.13  0.01  0.00  0.87  0.00  0.00  0.00  0.00  0.00
  YS02001619YS02001622    1.00   0.09  0.00  0.00  0.91  0.00  0.00  0.00  0.00  0.00
  YS02001622YS02001625    1.00   0.09  0.00  0.00  0.91  0.00  0.00  0.00  0.13  0.00
  YS02001625YS02001629    1.00   0.09  0.05  0.00  0.83  0.00  0.03  0.00  0.00  0.00
  YS02163301YS02001633    1.00   0.00  0.12  0.00  0.88  0.00  0.00  0.00  0.00  0.00
  YS02163601YS02164001    1.00   0.00  0.07  0.00  0.93  0.00  0.00  0.00  0.00  0.00
  YS02164001YS02001641    1.00   0.02  0.06  0.00  0.93  0.00  0.00  0.00  0.07  0.00
  YS02001641YS02001644    1.00   0.00  0.01  0.00  0.99  0.00  0.00  0.00  0.00  0.00
  YS02001647YS02001649    1.00   0.00  0.14  0.00  0.86  0.00  0.00  0.00  0.01  0.00
  YS02006553YS02006556    1.00   0.03  0.00  0.00  0.97  0.00  0.00  0.00  0.03  0.00
  YS02006556YS02006558    1.00   0.00  0.01  0.00  0.99  0.00  0.00  0.00  0.00  0.00
  YSB6556YSB1171          1.00   0.06  0.03  0.00  0.91  0.00  0.00  0.00  0.00  0.00
  YS02001907YS02006553    1.00   0.01  0.05  0.00  0.95  0.00  0.00  0.00  0.00  0.00
  YS02006558YS02006561    1.00   0.14  0.00  0.00  0.00  0.86  0.00  0.00  0.72  0.00
  YS02001633YS02163601    1.00   0.00  0.02  0.00  0.98  0.00  0.00  0.00  0.20  0.00
  YS02001644YS02001647    1.00   0.00  0.14  0.00  0.86  0.00  0.00  0.00  0.00  0.00
  YS02001745YS02001748    1.00   0.00  0.00  0.00  0.72  0.04  0.00  0.24  0.13  0.00
  YS02001748YS02001751    1.00   0.00  0.00  0.00  0.96  0.04  0.00  0.00  0.25  0.00
  YS02001751YS02001754    1.00   0.00  0.00  0.00  0.85  0.00  0.00  0.15  0.02  0.00
  YS02001754YS02001757    1.00   0.00  0.00  0.00  0.99  0.01  0.00  0.00  0.26  0.00
  YS02001882YS02001884    1.00   0.12  0.01  0.00  0.87  0.00  0.00  0.00  0.00  0.00
  YS02001884YS02001887    1.00   0.07  0.02  0.00  0.91  0.00  0.00  0.00  0.00  0.00
  YS02001890YS02001895    1.00   0.01  0.13  0.00  0.87  0.00  0.00  0.00  0.00  0.00
  YS02001895YS02001898    1.00   0.13  0.00  0.00  0.85  0.00  0.01  0.00  0.00  0.00
  YS02001898YS02001901    1.00   0.13  0.01  0.00  0.87  0.00  0.00  0.00  0.02  0.00
  YS02001901YS02001904    1.00   0.13  0.00  0.00  0.88  0.00  0.00  0.00  0.00  0.00
  YS02001904YS02001907    1.00   0.01  0.12  0.00  0.88  0.00  0.00  0.00  0.00  0.00
  YS02001887YS02001890    1.00   0.00  0.01  0.00  0.94  0.00  0.05  0.00  0.00  0.00
  YS02001652YS02001649    1.00   0.00  0.00  0.00  1.00  0.00  0.00  0.00  0.26  0.00
  YS02001655YS02001652    1.00   0.00  0.00  0.00  0.85  0.00  0.00  0.15  0.02  0.00
  YS02001658YS02001655    1.00   0.00  0.11  0.00  0.84  0.05  0.00  0.00  0.12  0.00
  YS02001661YS02001658    1.00   0.11  0.00  0.00  0.72  0.17  0.00  0.00  0.18  0.00
  YS02001664YS02001661    1.00   0.09  0.00  0.00  0.64  0.27  0.00  0.00  0.47  0.00
  YSB1154YSB6556          1.00   0.09  0.00  0.00  0.91  0.00  0.00  0.00  0.02  0.00
  YSB1174YSB1171          1.00   0.06  0.02  0.00  0.92  0.00  0.00  0.00  0.00  0.00
  YSB1171HS02004479       1.00   0.06  0.00  0.00  0.94  0.00  0.00  0.00  0.13  0.00
  HS02004881HS02006253    1.00   0.06  0.00  0.00  0.00  0.00  0.00  0.94  0.00  0.00
  YS02001793JiankangQianchi    1.00   0.00  0.00  0.00  0.05  0.95  0.00  0.00  0.02  0.00
  YS02001757CaochengTiaoxuchi    1.00   0.00  0.17  0.00  0.83  0.00  0.00  0.00  0.00  0.00
  WSF200WS02003060        1.00   0.00  0.13  0.00  0.87  0.00  0.00  0.00  0.67  0.00
  1                       1.00   0.00  0.00  0.00  0.00  1.00  0.00  0.00  0.20  0.00
  2                       1.00   1.00  0.00  0.00  0.00  0.00  0.00  0.00  0.00  0.00
  3                       1.00   0.36  0.00  0.00  0.00  0.64  0.00  0.00  0.27  0.00
  4                       1.00   1.00  0.00  0.00  0.00  0.00  0.00  0.00  0.00  0.00
  
  
  *************************
  Conduit Surcharge Summary
  *************************
  
  ----------------------------------------------------------------------------
                                                           Hours        Hours 
                         --------- Hours Full --------   Above Full   Capacity
  Conduit                Both Ends  Upstream  Dnstream   Normal Flow   Limited
  ----------------------------------------------------------------------------
  WS02006229WS02006228        0.01      0.01      0.01      0.36         0.01
  WS02006256WS02006235        3.79      3.79      6.31      3.49         0.01
  WS02006235WS02006234        0.01      0.01      0.01      3.52         0.01
  WS02006231WS02006230        0.01      0.01      0.01      4.77         0.01
  WS02006230WS02006229        0.01      0.01      0.01      5.78         0.01
  WS02006228WS02006109        0.01      0.01      0.01      0.91         0.01
  WS02006111WS02006112        0.01      0.01      0.46      0.01         0.01
  WS02004404WS02004405        0.01      0.01      0.01      4.17         0.01
  WS02003072WS02003073        0.01      0.01      0.01      0.78         0.01
  YS02001759YS02001757        5.00      5.00      5.24      0.01         0.01
  YS02001762YS02001759        4.88      4.88      5.00      0.01         0.01
  YS02001765YS02001762        4.69      4.69      4.88      0.01         0.01
  YS02001770YS02001767        4.55      4.56      4.58      0.01         0.28
  YS02001774YS02001770        4.47      4.47      4.82      0.01         0.01
  YS02001779YS02001774        4.00      4.00      4.82      0.01         0.01
  YS02001649YS02001757        4.92      4.92      5.24      0.01         0.01
  YS02001767YS02001765        4.58      4.58      4.69      0.01         0.01
  YS02001629YS02163301        4.42      4.42      4.51      0.01         0.01
  YS02001619YS02001622        3.28      3.28      3.37      0.01         0.01
  YS02001622YS02001625        3.37      3.37      4.26      0.01         0.01
  YS02001625YS02001629        3.29      3.29      4.26      0.01         0.01
  YS02163301YS02001633        4.51      4.51      4.73      0.01         0.01
  YS02163601YS02164001        4.69      4.69      4.91      0.01         0.01
  YS02164001YS02001641        4.69      4.69      4.77      0.01         0.01
  YS02001641YS02001644        4.77      4.77      4.79      0.01         0.29
  YS02001647YS02001649        4.24      4.24      4.92      0.01         0.01
  YS02001633YS02163601        4.63      4.63      4.91      0.01         0.01
  YS02001644YS02001647        4.24      4.24      4.79      0.01         0.01
  YS02001745YS02001748        0.01      0.01      2.36      0.01         0.01
  YS02001748YS02001751        2.72      2.72      3.45      0.01         0.01
  YS02001751YS02001754        3.45      3.45      4.09      0.01         0.01
  YS02001754YS02001757        4.24      4.24      5.24      0.01         0.01
  YS02001652YS02001649        4.28      4.28      4.92      0.01         0.01
  YS02001655YS02001652        3.54      3.54      4.18      0.01         0.01
  YS02001658YS02001655        2.43      2.43      3.54      0.01         0.01
  YS02001661YS02001658        0.01      0.01      2.43      0.01         0.01
  YS02001793JiankangQianchi        0.01      0.01      0.09      0.01         0.01
  YS02001757CaochengTiaoxuchi        3.00      3.00      5.24      0.01         0.01
  
  
  ***************
  Pumping Summary
  ***************
  
  ---------------------------------------------------------------------------------------------------------
                                                  Min       Avg       Max     Total     Power    % Time Off
                        Percent   Number of      Flow      Flow      Flow    Volume     Usage    Pump Curve
  Pump                 Utilized   Start-Ups       LPS       LPS       LPS  10^6 ltr     Kw-hr    Low   High
  ---------------------------------------------------------------------------------------------------------
  CC-Pump-1                0.00           0      0.00      0.00      0.00     0.000      0.00    0.0    0.0
  CC-Pump-2                0.00           0      0.00      0.00      0.00     0.000      0.00    0.0    0.0
  JK-Pump-1                4.26           1      0.00    252.73    300.00     0.179      2.80    0.0    0.0
  JK-Pump-2               97.86           1      0.00    161.22    285.05     2.801     54.09    0.0    0.0
  XR-Pump-1                4.26           1      0.00     88.26     95.00     0.086      1.01    0.0    0.0
  XR-Pump-2              100.00           1      0.00     95.00     95.00     2.679     17.48    0.0    0.0
  XR-Pump-3                0.00           0      0.00      0.00      0.00     0.000      0.00    0.0    0.0
  XR-Pump-4               97.86           1      0.00     94.51     95.00     2.593     16.47    0.0    0.0
  

  Analysis begun on:  Thu Jan  6 01:04:29 2022
  Analysis ended on:  Thu Jan  6 01:04:30 2022
  Total elapsed time: 00:00:01