
  EPA STORM WATER MANAGEMENT MODEL - VERSION 5.1 (Build 5.3.0.dev0)
  --------------------------------------------------------------

  WARNING 04: minimum elevation drop used for Conduit WS02004404WS02004405
  WARNING 03: negative offset ignored for Link YS02001904YS02001907
  
  *********************************************************
  NOTE: The summary statistics displayed in this report are
  based on results found at every computational time step,  
  not just on results from each reporting time step.
  *********************************************************
  
  ****************
  Analysis Options
  ****************
  Flow Units ............... LPS
  Process Models:
    Rainfall/Runoff ........ YES
    RDII ................... NO
    Snowmelt ............... NO
    Groundwater ............ NO
    Flow Routing ........... YES
    Ponding Allowed ........ NO
    Water Quality .......... NO
  Infiltration Method ...... HORTON
  Flow Routing Method ...... DYNWAVE
  Surcharge Method ......... EXTRAN
  Starting Date ............ 08/28/2015 08:00:00
  Ending Date .............. 08/28/2015 15:50:00
  Antecedent Dry Days ...... 8.0
  Report Time Step ......... 00:01:00
  Wet Time Step ............ 00:01:00
  Dry Time Step ............ 00:01:00
  Routing Time Step ........ 5.00 sec
  Variable Time Step ....... YES
  Maximum Trials ........... 8
  Number of Threads ........ 4
  Head Tolerance ........... 0.001500 m
  
  
  **************************        Volume         Depth
  Runoff Quantity Continuity     hectare-m            mm
  **************************     ---------       -------
  Total Precipitation ......         3.147         6.891
  Evaporation Loss .........         0.000         0.000
  Infiltration Loss ........         0.796         1.742
  Surface Runoff ...........         1.432         3.135
  Final Storage ............         0.920         2.015
  Continuity Error (%) .....        -0.018
  
  
  **************************        Volume        Volume
  Flow Routing Continuity        hectare-m      10^6 ltr
  **************************     ---------     ---------
  Dry Weather Inflow .......         0.616         6.165
  Wet Weather Inflow .......         1.431        14.311
  Groundwater Inflow .......         0.000         0.000
  RDII Inflow ..............         0.000         0.000
  External Inflow ..........         0.102         1.024
  External Outflow .........         1.140        11.402
  Flooding Loss ............         0.464         4.645
  Evaporation Loss .........         0.000         0.000
  Exfiltration Loss ........         0.000         0.000
  Initial Stored Volume ....         0.076         0.761
  Final Stored Volume ......         0.624         6.245
  Continuity Error (%) .....        -0.139
  
  
  *************************
  Highest Continuity Errors
  *************************
  Node YS02001774 (27.18%)
  Node HS02004842 (25.40%)
  Node YS02001884 (20.06%)
  Node YSB1171 (5.83%)
  Node YS02001625 (4.58%)
  
  
  ***************************
  Time-Step Critical Elements
  ***************************
  Link 3 (75.64%)
  Link YS02001793JiankangQianchi (14.66%)
  Link WS02006280WS02006229 (3.12%)
  
  
  ********************************
  Highest Flow Instability Indexes
  ********************************
  Link WS02006113WS02006111 (57)
  Link YS02163301YS02001633 (31)
  Link YS02001629YS02163301 (31)
  Link YS02001619YS02001622 (30)
  Link YS02163601YS02164001 (29)
  
  
  *************************
  Routing Time Step Summary
  *************************
  Minimum Time Step           :     0.41 sec
  Average Time Step           :     1.37 sec
  Maximum Time Step           :     5.00 sec
  Percent in Steady State     :     0.00
  Average Iterations per Step :     4.24
  Percent Not Converging      :    19.93
  
  
  ***************************
  Subcatchment Runoff Summary
  ***************************
  
  ------------------------------------------------------------------------------------------------------------------------------
                            Total      Total      Total      Total     Imperv       Perv      Total       Total     Peak  Runoff
                           Precip      Runon       Evap      Infil     Runoff     Runoff     Runoff      Runoff   Runoff   Coeff
  Subcatchment                 mm         mm         mm         mm         mm         mm         mm    10^6 ltr      LPS
  ------------------------------------------------------------------------------------------------------------------------------
  sub0                       6.89       0.00       0.00       0.48       5.14       0.00       5.14        0.00     1.72   0.746
  sub1                       6.89       0.00       0.00       0.76       4.88       0.00       4.88        0.03     9.27   0.708
  sub2                       6.89       0.00       0.00       2.55       3.43       0.00       3.43        0.03     8.25   0.498
  sub3                       6.89       0.00       0.00       2.55       3.40       0.00       3.40        0.08    17.12   0.493
  sub4                       6.89       0.00       0.00       0.76       4.73       0.00       4.73        0.10    19.36   0.687
  sub5                       6.89       0.00       0.00       0.48       5.10       0.00       5.10        0.06    16.48   0.740
  sub7                       6.89       0.00       0.00       0.62       5.02       0.00       5.02        0.02     5.74   0.728
  sub8                       6.89       0.00       0.00       0.62       5.01       0.00       5.01        0.03    10.18   0.727
  sub9                       6.89       0.00       0.00       0.62       5.00       0.00       5.00        0.02     7.56   0.726
  sub10                      6.89       0.00       0.00       0.55       5.05       0.00       5.05        0.06    16.42   0.733
  sub11                      6.89       0.00       0.00       0.55       5.06       0.00       5.06        0.06    19.13   0.735
  sub12                      6.89       0.00       0.00       0.90       4.81       0.00       4.81        0.04    15.99   0.697
  sub14                      6.89       0.00       0.00       0.62       5.00       0.00       5.00        0.05    14.78   0.726
  sub15                      6.89       0.00       0.00       2.07       3.84       0.00       3.84        0.07    20.07   0.558
  sub16                      6.89       0.00       0.00       2.27       3.70       0.00       3.70        0.04    14.12   0.537
  sub17                      6.89       0.00       0.00       2.20       3.75       0.00       3.75        0.03    11.42   0.544
  sub22                      6.89       0.00       0.00       2.96       3.14       0.00       3.14        0.20    65.39   0.456
  sub23                      6.89       0.00       0.00       2.55       3.47       0.00       3.47        0.17    55.59   0.504
  sub60                      6.89       0.00       0.00       0.83       3.52       0.00       3.52        1.07   103.27   0.511
  sub61                      6.89       0.00       0.00       1.17       3.72       0.00       3.72        1.15   128.06   0.540
  sub62                      6.89       0.00       0.00       0.55       4.00       0.00       4.00        1.23   131.31   0.581
  sub63                      6.89       0.00       0.00       2.00       3.30       0.00       3.30        1.00   118.97   0.479
  sub64                      6.89       0.00       0.00       1.03       3.37       0.00       3.37        1.02    98.15   0.488
  sub65                      6.89       0.00       0.00       0.90       3.41       0.00       3.41        1.05    99.66   0.495
  sub66                      6.89       0.00       0.00       2.00       2.93       0.00       2.93        0.90    89.65   0.425
  sub67                      6.89       0.00       0.00       0.55       4.36       0.00       4.36        1.35   166.79   0.633
  sub68                      6.89       0.00       0.00       0.96       3.95       0.00       3.95        1.21   141.17   0.573
  sub69                      6.89       0.00       0.00       1.03       4.22       0.00       4.22        0.99   138.50   0.612
  sub70                      6.89       4.31       0.00       3.81       5.29       0.00       5.29        1.21   116.43   0.473
  sub71                      6.89       0.00       0.00       0.55       3.84       0.00       3.84        0.91    92.03   0.558
  sub72                      6.89       0.00       0.00       0.48       2.78       0.00       2.78        0.57    44.19   0.404
  sub73                      6.89       5.15       0.00       4.09       5.48       0.00       5.48        1.29   100.82   0.455
  sub74                      6.89       0.00       0.00       5.17       1.27       0.00       1.27        0.51    76.91   0.184
  
  
  ******************
  Node Depth Summary
  ******************
  
  ---------------------------------------------------------------------------------
                                 Average  Maximum  Maximum  Time of Max    Reported
                                   Depth    Depth      HGL   Occurrence   Max Depth
  Node                 Type       Meters   Meters   Meters  days hr:min      Meters
  ---------------------------------------------------------------------------------
  WS02001211           JUNCTION     0.61     0.63     5.47     0  02:38        0.63
  WS02001212           JUNCTION     0.34     0.36     5.43     0  02:37        0.36
  WS02001213           JUNCTION     0.54     0.62     5.38     0  02:36        0.62
  WS02003069           JUNCTION     0.35     0.46     5.05     0  02:35        0.46
  WS02003072           JUNCTION     0.42     0.53     4.90     0  02:36        0.53
  WS02003073           JUNCTION     0.25     0.32     4.38     0  02:36        0.32
  WS02003060           JUNCTION     0.32     0.41     5.34     0  02:34        0.41
  WS02003066           JUNCTION     0.18     0.27     5.82     0  02:32        0.27
  WS02003059           JUNCTION     0.60     0.68     5.37     0  02:35        0.68
  WS02003067           JUNCTION     0.47     0.65     5.97     0  02:32        0.65
  WS02004401           JUNCTION     0.55     0.76     6.76     0  02:28        0.76
  WS02004402           JUNCTION     0.58     0.79     6.75     0  02:28        0.79
  WS02004403           JUNCTION     0.61     0.81     6.74     0  02:28        0.81
  WS02004404           JUNCTION     0.68     0.89     6.74     0  02:28        0.89
  WS02004406           JUNCTION     0.69     0.89     6.72     0  02:28        0.89
  WS02004409           JUNCTION     0.36     0.58     6.35     0  02:31        0.58
  WS02004410           JUNCTION     0.39     0.60     6.32     0  02:31        0.60
  WS02004411           JUNCTION     0.41     0.61     6.29     0  02:32        0.61
  WS02004412           JUNCTION     0.43     0.63     6.27     0  02:32        0.63
  WS02004413           JUNCTION     0.58     0.79     6.26     0  02:32        0.79
  WS02004405           JUNCTION     0.68     0.88     6.73     0  02:28        0.88
  WS02006109           JUNCTION     0.60     0.84     7.46     0  02:23        0.84
  WS02006110           JUNCTION     0.62     0.83     7.41     0  02:24        0.83
  WS02006111           JUNCTION     0.17     0.25     6.96     0  02:24        0.25
  WS02006112           JUNCTION     0.69     0.94     6.83     0  02:27        0.94
  WS02006113           JUNCTION     0.25     0.40     7.29     0  02:24        0.40
  WS02006115           JUNCTION     0.43     0.65     6.79     0  02:28        0.65
  WS02006116           JUNCTION     0.52     0.74     6.78     0  02:28        0.74
  WS02006230           JUNCTION     0.52     0.80     7.55     0  02:24        0.80
  WS02006231           JUNCTION     0.32     0.46     7.58     0  02:25        0.46
  WS02006232           JUNCTION     0.44     0.56     7.60     0  02:26        0.56
  WS02006234           JUNCTION     0.33     0.46     7.62     0  02:26        0.46
  WS02006235           JUNCTION     0.36     0.47     7.64     0  02:26        0.47
  WS02006238           JUNCTION     0.38     0.49     7.64     0  02:26        0.49
  WS02006240           JUNCTION     0.23     0.35     7.64     0  02:26        0.35
  WS02006242           JUNCTION     0.26     0.38     7.65     0  02:26        0.38
  WS02006243           JUNCTION     0.12     0.23     7.65     0  02:26        0.23
  WS02006245           JUNCTION     0.08     0.19     7.68     0  02:25        0.19
  WS02006247           JUNCTION     0.09     0.21     7.71     0  02:22        0.21
  WS02006248           JUNCTION     0.06     0.16     7.75     0  02:18        0.16
  WS02006249           JUNCTION     0.09     0.21     7.81     0  02:18        0.21
  WS02006239           JUNCTION     0.31     0.43     7.64     0  02:26        0.43
  WS02006251           JUNCTION     0.07     0.19     7.86     0  02:17        0.18
  WS02006252           JUNCTION     0.00     0.00     8.24     0  00:00        0.00
  WS02006253           JUNCTION     0.11     0.25     7.89     0  02:16        0.25
  WS02006256           JUNCTION     0.98     1.15     8.09     0  00:00        1.11
  WS02004138           JUNCTION     0.14     0.14     7.39     0  00:00        0.14
  WS02004407           JUNCTION     0.17     0.26     6.57     0  02:29        0.26
  WS02006228           JUNCTION     0.59     0.86     7.51     0  02:23        0.86
  WS02006229           JUNCTION     0.55     0.84     7.53     0  02:23        0.84
  WS02006280           JUNCTION     0.06     0.16     8.43     0  02:17        0.16
  WS02006284           JUNCTION     0.36     0.50     8.90     0  02:16        0.50
  WS02006287           JUNCTION     0.09     0.24     9.19     0  02:16        0.24
  WSF200               JUNCTION     0.16     0.27     5.50     0  02:33        0.27
  HS02004901           JUNCTION     0.12     0.25    10.07     0  02:14        0.25
  HS02004881           JUNCTION     0.01     0.03     9.06     0  02:16        0.03
  HS02004876           JUNCTION     0.04     0.11     9.14     0  02:12        0.11
  HS02004870           JUNCTION     0.01     0.05     9.33     0  02:17        0.05
  HS02004862           JUNCTION     0.02     0.05     9.44     0  02:18        0.05
  HS02004856           JUNCTION     0.07     0.11     9.54     0  02:17        0.11
  HS02004852           JUNCTION     0.01     0.03     9.54     0  02:18        0.03
  HS02004848           JUNCTION     0.01     0.03     9.63     0  02:17        0.03
  HS02004842           JUNCTION     0.32     0.36     9.63     0  02:17        0.36
  HS02004837           JUNCTION     0.03     0.05     9.63     0  02:17        0.05
  HS02004830           JUNCTION     0.04     0.07     9.54     0  02:17        0.07
  HS02004824           JUNCTION     0.02     0.04     9.45     0  02:20        0.04
  HS02004817           JUNCTION     0.42     0.54     9.39     0  02:17        0.54
  HS02004807           JUNCTION     0.12     0.22     9.39     0  02:17        0.22
  HS02004802           JUNCTION     0.16     0.26     9.38     0  02:17        0.26
  HS02004799           JUNCTION     0.12     0.28     9.50     0  02:14        0.28
  HS02004792           JUNCTION     0.03     0.11     9.64     0  02:14        0.11
  HS02004788           JUNCTION     0.02     0.08     9.98     0  02:15        0.08
  HS02004785           JUNCTION     0.05     0.15    10.05     0  02:14        0.15
  HS02004777           JUNCTION     0.14     0.27    10.07     0  02:14        0.27
  HS02004770           JUNCTION     0.11     0.24    10.07     0  02:14        0.24
  HS02004480           JUNCTION     0.08     0.22     9.46     0  02:15        0.22
  HS02004479           JUNCTION     0.11     0.26     9.46     0  02:15        0.26
  HS02004478           JUNCTION     0.06     0.14     9.37     0  02:16        0.14
  YS02001745           JUNCTION     0.52     0.86     8.38     0  04:18        0.86
  YS02001748           JUNCTION     0.87     1.30     8.38     0  04:11        1.29
  YS02001751           JUNCTION     1.05     1.62     8.50     0  03:06        1.49
  YS02001754           JUNCTION     1.28     1.79     8.40     0  04:11        1.77
  YS02001762           JUNCTION     1.47     2.01     8.41     0  04:11        1.98
  YS02001765           JUNCTION     1.43     1.96     8.41     0  04:11        1.93
  YS02001767           JUNCTION     1.39     1.91     8.40     0  04:11        1.89
  YS02001770           JUNCTION     1.39     1.89     8.39     0  04:09        1.88
  YS02001774           JUNCTION     1.45     1.96     8.39     0  04:11        1.95
  YS02001779           JUNCTION     1.22     1.68     8.37     0  03:03        1.68
  YS02001882           JUNCTION     0.34     0.53     7.25     0  02:54        0.53
  YS02001884           JUNCTION     0.43     0.63     7.25     0  02:53        0.63
  YS02001759           JUNCTION     1.51     2.04     8.41     0  04:11        2.02
  YS02001887           JUNCTION     0.51     0.71     7.25     0  02:53        0.71
  YS02001890           JUNCTION     0.54     0.74     7.25     0  02:54        0.74
  YS02001898           JUNCTION     0.31     0.50     7.23     0  02:55        0.50
  YS02001901           JUNCTION     0.43     0.62     7.23     0  02:54        0.62
  YS02001904           JUNCTION     0.40     0.60     7.23     0  02:54        0.60
  YS02001907           JUNCTION     0.72     0.94     7.23     0  02:54        0.94
  YS02001910           JUNCTION     0.52     0.72     7.23     0  02:54        0.72
  YS02001915           JUNCTION     0.33     0.51     7.23     0  02:53        0.51
  YS02001918           JUNCTION     0.10     0.16     7.23     0  02:53        0.16
  YS02001619           JUNCTION     1.01     1.51     8.43     0  03:38        1.45
  YS02001629           JUNCTION     1.34     1.85     8.40     0  03:38        1.82
  YS02001641           JUNCTION     1.44     1.93     8.37     0  04:02        1.92
  YS02001644           JUNCTION     1.45     1.92     8.35     0  03:56        1.92
  YS02001652           JUNCTION     1.30     2.09     8.69     0  03:08        1.81
  YS02001655           JUNCTION     1.07     2.12     8.97     0  03:08        1.58
  YS02001920           JUNCTION     0.19     0.24     7.25     0  02:58        0.24
  YS02001923           JUNCTION     0.07     0.10     7.36     0  03:01        0.10
  YS02001926           JUNCTION     0.16     0.20     7.64     0  03:01        0.20
  YS02001929           JUNCTION     0.08     0.10     7.79     0  03:01        0.10
  YS02001658           JUNCTION     0.82     1.44     8.58     0  03:30        1.31
  YS02001661           JUNCTION     0.62     1.20     8.61     0  04:11        1.06
  YS02001664           JUNCTION     0.26     0.56     8.49     0  04:09        0.54
  YS02001622           JUNCTION     1.03     1.52     8.42     0  03:38        1.48
  YS02001633           JUNCTION     1.43     1.94     8.39     0  04:03        1.91
  YS02001649           JUNCTION     1.48     2.04     8.43     0  04:11        2.00
  YS02001757           JUNCTION     1.60     2.15     8.41     0  04:11        2.12
  YS02001895           JUNCTION     0.31     0.49     7.24     0  02:54        0.49
  YS02001625           JUNCTION     1.30     1.78     8.38     0  03:36        1.78
  YS02163301           JUNCTION     1.37     1.88     8.40     0  03:38        1.86
  YS02163601           JUNCTION     1.48     1.99     8.39     0  04:02        1.97
  YS02164001           JUNCTION     1.42     1.92     8.38     0  04:02        1.90
  YS02001647           JUNCTION     1.28     1.79     8.40     0  04:11        1.76
  YSB1154              JUNCTION     0.25     0.41     9.47     0  02:15        0.41
  YSB6556              JUNCTION     0.15     0.30     9.47     0  02:15        0.30
  YSB1174              JUNCTION     0.20     0.36     9.47     0  02:15        0.36
  YSB1171              JUNCTION     0.40     0.56     9.47     0  02:15        0.56
  YS02006553           JUNCTION     0.73     0.94     7.23     0  02:54        0.94
  YS02006561           JUNCTION     0.17     0.27     6.93     0  02:54        0.27
  YS02006556           JUNCTION     0.70     0.91     7.22     0  02:54        0.91
  YS02006558           JUNCTION     0.75     0.95     7.22     0  02:54        0.95
  YS02001783           JUNCTION     0.32     0.59     6.74     0  03:21        0.59
  YS02001784           JUNCTION     0.36     0.65     6.72     0  03:21        0.65
  YS02001786           JUNCTION     0.32     0.67     6.70     0  03:21        0.66
  YS02001788           JUNCTION     0.27     0.69     6.67     0  03:21        0.69
  YS02001790           JUNCTION     0.38     1.01     6.66     0  03:21        1.01
  YS02001791           JUNCTION     0.37     1.44     6.91     0  03:11        1.15
  YS02001793           JUNCTION     0.54     2.68     7.51     0  03:04        1.78
  WS02004139           JUNCTION     0.55     0.57     5.48     0  02:38        0.57
  WSC                  OUTFALL      0.24     0.32     0.99     0  02:37        0.32
  3                    OUTFALL      0.08     0.13     6.13     0  00:00        0.11
  4                    OUTFALL      0.00     0.00     7.00     0  00:00        0.00
  5                    OUTFALL      0.00     0.00     5.00     0  00:00        0.00
  JK-storage           STORAGE      2.53     5.80     6.60     0  03:20        5.80
  CC-storage           STORAGE      0.88     1.38     8.38     0  04:16        1.38
  XR-storage           STORAGE      7.37     7.72     5.72     0  02:32        7.72
  
  
  *******************
  Node Inflow Summary
  *******************
  
  -------------------------------------------------------------------------------------------------
                                  Maximum  Maximum                  Lateral       Total        Flow
                                  Lateral    Total  Time of Max      Inflow      Inflow     Balance
                                   Inflow   Inflow   Occurrence      Volume      Volume       Error
  Node                 Type           LPS      LPS  days hr:min    10^6 ltr    10^6 ltr     Percent
  -------------------------------------------------------------------------------------------------
  WS02001211           JUNCTION      7.35   198.15     0  02:50       0.207        5.54       0.549
  WS02001212           JUNCTION      0.00   198.72     0  02:50           0        5.51       0.287
  WS02001213           JUNCTION      0.00   199.22     0  02:49           0        5.49       0.328
  WS02003069           JUNCTION      0.32   631.00     0  02:35     0.00902        9.69       0.188
  WS02003072           JUNCTION      0.00   630.97     0  02:35           0        9.67       0.252
  WS02003073           JUNCTION      1.82   632.76     0  02:36      0.0514         9.7       0.265
  WS02003060           JUNCTION     16.53   630.67     0  02:34       0.466         9.7       0.180
  WS02003066           JUNCTION      0.00   420.66     0  02:32           0        3.79       0.064
  WS02003059           JUNCTION      0.00   200.31     0  02:49           0        5.48       0.562
  WS02003067           JUNCTION      0.00   420.64     0  02:32           0         3.8       0.155
  WS02004401           JUNCTION      0.00   425.10     0  02:26           0        3.94       0.353
  WS02004402           JUNCTION      0.00   424.43     0  02:27           0        3.93       0.348
  WS02004403           JUNCTION      0.00   424.12     0  02:27           0        3.92       0.330
  WS02004404           JUNCTION      0.16   424.12     0  02:28     0.00457        3.91       0.264
  WS02004406           JUNCTION      0.00   424.04     0  02:28           0        3.88       0.651
  WS02004409           JUNCTION      0.00   423.97     0  02:29           0        3.85       0.187
  WS02004410           JUNCTION      0.00   422.61     0  02:30           0        3.85       0.233
  WS02004411           JUNCTION      0.00   421.67     0  02:30           0        3.84       0.260
  WS02004412           JUNCTION      0.00   421.10     0  02:31           0        3.83       0.311
  WS02004413           JUNCTION      0.00   420.76     0  02:31           0        3.82       0.502
  WS02004405           JUNCTION      0.04   424.07     0  02:28     0.00107         3.9       0.396
  WS02006109           JUNCTION      1.23   421.73     0  02:23      0.0347        3.99       0.377
  WS02006110           JUNCTION      0.00   421.74     0  02:23           0        3.97       0.310
  WS02006111           JUNCTION      0.00   432.07     0  02:24           0        3.95       0.055
  WS02006112           JUNCTION     11.42   430.80     0  02:24      0.0322        3.98       0.521
  WS02006113           JUNCTION      0.00   421.80     0  02:24           0        3.96       0.105
  WS02006115           JUNCTION      0.00   428.21     0  02:25           0        3.96       0.266
  WS02006116           JUNCTION      0.00   426.17     0  02:26           0        3.95       0.272
  WS02006230           JUNCTION     10.28   191.11     0  02:33        0.29        2.92       0.338
  WS02006231           JUNCTION      0.00   179.30     0  02:32           0        2.63       0.075
  WS02006232           JUNCTION      0.00   178.15     0  02:32           0        2.64       0.365
  WS02006234           JUNCTION      0.00   177.01     0  02:32           0        2.64       0.048
  WS02006235           JUNCTION      0.00   176.47     0  02:32           0        2.68       0.248
  WS02006238           JUNCTION      0.00    88.92     0  00:00           0       0.225       1.308
  WS02006240           JUNCTION      0.00    48.04     0  02:27           0       0.201       1.159
  WS02006242           JUNCTION      0.00    48.19     0  02:24           0       0.194       1.392
  WS02006243           JUNCTION      0.00    51.47     0  02:19           0       0.186      -0.517
  WS02006245           JUNCTION      0.00    51.85     0  02:18           0       0.185       0.708
  WS02006247           JUNCTION      0.00    51.92     0  02:18           0       0.185       0.060
  WS02006248           JUNCTION      0.00    51.96     0  02:18           0       0.185      -0.029
  WS02006249           JUNCTION      0.00    52.00     0  02:17           0       0.185       0.256
  WS02006239           JUNCTION      0.00    71.07     0  00:01           0       0.212       1.573
  WS02006251           JUNCTION      0.08    52.08     0  02:16     0.00217       0.185       0.042
  WS02006252           JUNCTION      0.00     0.00     0  00:00           0           0       0.000 ltr
  WS02006253           JUNCTION      1.72    52.03     0  02:16     0.00416       0.183       0.077
  WS02006256           JUNCTION      0.00   300.00     0  00:00           0        4.21       0.057
  WS02004138           JUNCTION      0.00   190.00     0  00:10           0        5.36       0.074
  WS02004407           JUNCTION      0.00   424.00     0  02:29           0        3.86       0.089
  WS02006228           JUNCTION      0.00   420.49     0  02:23           0        3.96       0.232
  WS02006229           JUNCTION      0.00   420.53     0  02:23           0        3.97       0.236
  WS02006280           JUNCTION      0.00   261.73     0  02:17           0        1.06       0.006
  WS02006284           JUNCTION      0.10   261.72     0  02:16      0.0027        1.06       0.103
  WS02006287           JUNCTION      0.00   261.60     0  02:16           0        1.06       0.068
  WSF200               JUNCTION      0.00   420.65     0  02:32           0        3.79       0.050
  HS02004901           JUNCTION     14.12    14.12     0  02:09      0.0387      0.0388       4.739
  HS02004881           JUNCTION      5.74    50.69     0  02:16      0.0169       0.179       0.035
  HS02004876           JUNCTION      9.27    45.23     0  02:16      0.0324       0.163       0.328
  HS02004870           JUNCTION     10.18    36.13     0  02:16       0.032        0.13       0.082
  HS02004862           JUNCTION      8.45    26.57     0  02:17      0.0376      0.0985       0.173
  HS02004856           JUNCTION      7.56    18.17     0  02:16      0.0241      0.0623       2.362
  HS02004852           JUNCTION      0.00    11.06     0  02:17           0      0.0383       0.136
  HS02004848           JUNCTION     17.12    17.12     0  02:20      0.0765      0.0765       0.057
  HS02004842           JUNCTION      0.00     6.65     0  02:29           0      0.0512      34.057
  HS02004837           JUNCTION     22.77    28.31     0  02:16       0.235       0.273       0.298
  HS02004830           JUNCTION      0.15    28.44     0  02:17     0.00423       0.263       0.471
  HS02004824           JUNCTION     19.41    47.61     0  02:20         0.1       0.362       0.149
  HS02004817           JUNCTION      0.60    48.20     0  02:20      0.0169       0.378       4.606
  HS02004807           JUNCTION     19.13    65.71     0  02:18      0.0588       0.421       1.015
  HS02004802           JUNCTION      0.00    66.13     0  02:19           0       0.416       0.983
  HS02004799           JUNCTION     14.78   167.12     0  02:14      0.0476       0.565       0.406
  HS02004792           JUNCTION     65.67   152.55     0  02:13       0.206       0.518       0.079
  HS02004788           JUNCTION     21.74    88.73     0  02:14       0.113       0.313       0.126
  HS02004785           JUNCTION      0.15    67.27     0  02:14     0.00423       0.201       0.241
  HS02004777           JUNCTION      0.03    67.55     0  02:12    0.000846       0.202       2.635
  HS02004770           JUNCTION     55.59    68.62     0  02:11       0.165       0.203       1.552
  HS02004480           JUNCTION      0.00   197.19     0  02:15           0       0.661       0.114
  HS02004479           JUNCTION      0.00    30.69     0  02:16           0       0.109       0.674
  HS02004478           JUNCTION      0.00   261.58     0  02:16           0        1.06       0.057
  YS02001745           JUNCTION    103.27   181.83     0  03:36        1.07        1.08       1.061
  YS02001748           JUNCTION      0.04   384.87     0  03:04     0.00127         1.1       2.140
  YS02001751           JUNCTION      0.01   423.27     0  03:05     0.00031        1.06       2.119
  YS02001754           JUNCTION      0.26   196.46     0  03:05     0.00733        1.02       2.396
  YS02001762           JUNCTION      0.00   162.28     0  03:03           0        1.14       1.864
  YS02001765           JUNCTION      0.00   161.69     0  03:03           0        1.14       2.140
  YS02001767           JUNCTION      0.54   160.77     0  03:03      0.0151        1.16       3.154
  YS02001770           JUNCTION    131.47   159.69     0  03:03        1.23        1.25       2.562
  YS02001774           JUNCTION      0.00    61.09     0  03:04           0      0.0926      37.323
  YS02001779           JUNCTION      0.01    60.80     0  03:04    0.000141      0.0516      40.419
  YS02001882           JUNCTION      0.00     4.88     0  02:07           0     0.00642      38.781
  YS02001884           JUNCTION      0.00    13.65     0  02:10           0      0.0256      25.100
  YS02001759           JUNCTION    128.10   288.04     0  03:03        1.15        2.25       1.020
  YS02001887           JUNCTION    167.24   167.76     0  02:43        1.36        1.37       0.545
  YS02001890           JUNCTION      0.00   167.63     0  02:43           0        1.34       0.609
  YS02001898           JUNCTION      0.00   166.43     0  02:42           0        1.33       0.182
  YS02001901           JUNCTION      0.00   165.64     0  02:44           0        1.33       0.437
  YS02001904           JUNCTION      0.00   165.44     0  02:43           0        1.33       0.406
  YS02001907           JUNCTION      0.00   301.60     0  02:57           0        2.86       0.791
  YS02001910           JUNCTION      0.00   139.70     0  03:01           0        1.55       0.682
  YS02001915           JUNCTION     92.05   139.24     0  03:01       0.908        1.55       0.315
  YS02001918           JUNCTION      0.00    47.28     0  03:03           0       0.645       0.200
  YS02001619           JUNCTION     89.65    89.65     0  02:59       0.897       0.897       1.336
  YS02001629           JUNCTION      0.00   178.54     0  03:09           0       0.819       3.625
  YS02001641           JUNCTION      0.00   197.38     0  03:03           0        1.77       1.189
  YS02001644           JUNCTION     98.19   475.94     0  04:21        1.02        4.36       0.598
  YS02001652           JUNCTION      0.00   170.17     0  03:06           0       0.937       2.497
  YS02001655           JUNCTION      0.15   379.60     0  03:08     0.00434        0.97       2.549
  YS02001920           JUNCTION      2.87    47.04     0  03:01      0.0809       0.647       0.346
  YS02001923           JUNCTION      0.04    44.17     0  03:01     0.00106       0.566       0.062
  YS02001926           JUNCTION      0.05    44.22     0  03:01     0.00147       0.568       0.431
  YS02001929           JUNCTION     44.19    44.19     0  03:01       0.567       0.567       0.061
  YS02001658           JUNCTION      0.00   375.47     0  03:30           0        1.05       2.133
  YS02001661           JUNCTION      0.00   398.46     0  04:00           0        1.36       1.031
  YS02001664           JUNCTION    118.97   352.26     0  04:00       0.998        1.31       0.460
  YS02001622           JUNCTION      0.00   132.75     0  03:09           0       0.886       3.687
  YS02001633           JUNCTION     99.86   199.51     0  02:58        1.05        1.83       1.785
  YS02001649           JUNCTION      0.00   454.36     0  03:02           0        3.65       1.016
  YS02001757           JUNCTION      0.00   759.35     0  03:03           0         5.3       1.766
  YS02001895           JUNCTION      0.00   167.12     0  02:43           0        1.33       0.299
  YS02001625           JUNCTION      0.00   178.81     0  03:09           0       0.855       4.805
  YS02163301           JUNCTION      0.00   101.04     0  03:03           0       0.802       3.081
  YS02163601           JUNCTION      0.11   198.66     0  02:58      0.0031        1.79       1.697
  YS02164001           JUNCTION      0.00   198.43     0  03:03           0        1.77       1.138
  YS02001647           JUNCTION      0.00   321.75     0  04:21           0        3.08       0.907
  YSB1154              JUNCTION     16.48    16.48     0  02:14      0.0577       0.059       2.509
  YSB6556              JUNCTION      0.00    16.51     0  02:15           0      0.0599       2.126
  YSB1174              JUNCTION     15.99    15.99     0  02:08       0.042      0.0429       3.083
  YSB1171              JUNCTION      0.00    30.60     0  02:14           0       0.108       6.197
  YS02006553           JUNCTION      0.00   301.83     0  03:02           0        2.85       0.512
  YS02006561           JUNCTION      0.00   468.50     0  02:54           0        4.04       0.014
  YS02006556           JUNCTION      0.00   302.24     0  03:02           0        2.86       0.371
  YS02006558           JUNCTION    142.05   442.47     0  02:54        1.24        4.07       0.117
  YS02001783           JUNCTION      0.00   442.10     0  02:54           0        4.04       0.043
  YS02001784           JUNCTION      1.06   443.01     0  02:55      0.0299        4.07       0.069
  YS02001786           JUNCTION      0.06   443.07     0  02:55     0.00159        4.06       0.066
  YS02001788           JUNCTION      0.07   443.14     0  02:55       0.002        4.06       0.038
  YS02001790           JUNCTION      0.15   443.30     0  02:55     0.00437        4.07       0.046
  YS02001791           JUNCTION      0.00   454.98     0  03:11           0        4.07       0.022
  YS02001793           JUNCTION      0.00   986.18     0  03:03           0        4.08      -0.100
  WS02004139           JUNCTION      0.32   191.11     0  00:00     0.00905        5.36       0.590
  WSC                  OUTFALL       0.00   632.72     0  02:37           0        9.67       0.000
  3                    OUTFALL       0.00   250.55     0  00:00           0        1.73       0.000
  4                    OUTFALL       0.00     0.00     0  00:00           0           0       0.000 ltr
  5                    OUTFALL       0.00     0.00     0  00:00           0           0       0.000 ltr
  JK-storage           STORAGE       0.00  1187.37     0  03:02           0        4.23      -0.660
  CC-storage           STORAGE       0.00   761.76     0  03:03           0        3.92       1.682
  XR-storage           STORAGE     366.60   366.60     0  02:56        7.43        8.03      -0.000
  
  
  **********************
  Node Surcharge Summary
  **********************
  
  Surcharging occurs when water rises above the top of the highest conduit.
  ---------------------------------------------------------------------
                                               Max. Height   Min. Depth
                                   Hours       Above Crown    Below Rim
  Node                 Type      Surcharged         Meters       Meters
  ---------------------------------------------------------------------
  WS02006109           JUNCTION        0.25          0.025        1.795
  WS02006228           JUNCTION        0.23          0.025        2.175
  YS02001748           JUNCTION        4.09          0.222        0.968
  YS02001751           JUNCTION        4.51          0.625        0.575
  YS02001754           JUNCTION        4.90          0.741        0.409
  YS02001762           JUNCTION        5.35          1.013        0.137
  YS02001765           JUNCTION        5.32          0.959        0.141
  YS02001767           JUNCTION        5.30          0.911        0.119
  YS02001770           JUNCTION        5.26          0.863        0.057
  YS02001774           JUNCTION        5.34          0.963        0.087
  YS02001779           JUNCTION        4.78          0.680        0.000
  YS02001759           JUNCTION        5.39          1.045        0.165
  YS02001619           JUNCTION        4.44          0.506        0.104
  YS02001629           JUNCTION        4.47          0.470        0.000
  YS02001641           JUNCTION        5.33          0.932        0.168
  YS02001644           JUNCTION        5.34          0.920        0.000
  YS02001652           JUNCTION        5.05          1.063        0.067
  YS02001655           JUNCTION        4.57          1.124        0.076
  YS02001658           JUNCTION        4.11          0.438        0.862
  YS02001661           JUNCTION        0.01          0.132        1.258
  YS02001622           JUNCTION        4.49          0.519        0.101
  YS02001633           JUNCTION        5.31          0.919        0.141
  YS02001649           JUNCTION        5.36          1.039        0.011
  YS02001757           JUNCTION        5.46          1.153        0.057
  YS02001625           JUNCTION        5.16          0.780        0.000
  YS02163301           JUNCTION        5.28          0.880        0.150
  YS02163601           JUNCTION        5.37          0.987        0.093
  YS02164001           JUNCTION        5.33          0.920        0.180
  YS02001647           JUNCTION        5.10          0.788        0.112
  YS02001790           JUNCTION        0.71          0.213        0.944
  YS02001791           JUNCTION        0.88          0.645        1.275
  YS02001793           JUNCTION        1.15          1.677        0.923
  
  
  *********************
  Node Flooding Summary
  *********************
  
  Flooding refers to all water that overflows a node, whether it ponds or not.
  --------------------------------------------------------------------------
                                                             Total   Maximum
                                 Maximum   Time of Max       Flood    Ponded
                        Hours       Rate    Occurrence      Volume     Depth
  Node                 Flooded       LPS   days hr:min    10^6 ltr    Meters
  --------------------------------------------------------------------------
  YS02001779              0.89     35.59      0  04:23       0.022     0.000
  YS02001629              0.01     13.79      0  03:38       0.000     0.000
  YS02001644              3.81    475.93      0  04:21       2.832     0.000
  YS02001625              0.03     12.72      0  03:38       0.000     0.000
  JK-storage              0.35     74.25      0  03:22       0.041     0.000
  XR-storage              5.29    176.60      0  02:56       1.749     0.000
  
  
  **********************
  Storage Volume Summary
  **********************
  
  --------------------------------------------------------------------------------------------------
                         Average     Avg  Evap Exfil       Maximum     Max    Time of Max    Maximum
                          Volume    Pcnt  Pcnt  Pcnt        Volume    Pcnt     Occurrence    Outflow
  Storage Unit           1000 m3    Full  Loss  Loss       1000 m3    Full    days hr:min        LPS
  --------------------------------------------------------------------------------------------------
  JK-storage               0.127      44     0     0         0.291     100       0  03:20     840.55
  CC-storage               2.441      16     0     0         3.842      24       0  04:16     125.48
  XR-storage               0.884      95     0     0         0.926     100       0  02:32     190.00
  
  
  ***********************
  Outfall Loading Summary
  ***********************
  
  -----------------------------------------------------------
                         Flow       Avg       Max       Total
                         Freq      Flow      Flow      Volume
  Outfall Node           Pcnt       LPS       LPS    10^6 ltr
  -----------------------------------------------------------
  WSC                   99.99    397.67    632.72       9.672
  3                     76.71    150.10    250.55       1.730
  4                      0.00      0.00      0.00       0.000
  5                      0.00      0.00      0.00       0.000
  -----------------------------------------------------------
  System                44.18    547.76    803.75      11.402
  
  
  ********************
  Link Flow Summary
  ********************
  
  -----------------------------------------------------------------------------
                                 Maximum  Time of Max   Maximum    Max/    Max/
                                  |Flow|   Occurrence   |Veloc|    Full    Full
  Link                 Type          LPS  days hr:min     m/sec    Flow   Depth
  -----------------------------------------------------------------------------
  WS02003066WSF200     CONDUIT    420.65     0  02:32      2.58    0.07    0.20
  WS02006287WS02006284 CONDUIT    261.62     0  02:16      1.76    0.12    0.24
  WS02006284WS02006280 CONDUIT    261.73     0  02:17      2.00    0.11    0.22
  WS02006280WS02006229 CONDUIT    261.73     0  02:17      3.22    0.06    0.16
  WS02006229WS02006228 CONDUIT    420.49     0  02:23      0.84    1.39    1.00
  WS02006256WS02006235 CONDUIT    166.25     0  00:01      2.58    1.76    1.00
  WS02006253WS02006251 CONDUIT     52.00     0  02:16      0.53    0.16    0.30
  WS02006252WS02006251 CONDUIT      0.00     0  00:00      0.00    0.00    0.00
  WS02006251WS02006249 CONDUIT     52.00     0  02:17      0.59    0.15    0.28
  WS02006249WS02006248 CONDUIT     51.96     0  02:18      0.69    0.28    0.25
  WS02006248WS02006247 CONDUIT     51.92     0  02:18      0.67    0.11    0.26
  WS02006247WS02006245 CONDUIT     51.85     0  02:18      0.61    0.41    0.28
  WS02006245WS02006243 CONDUIT     51.47     0  02:19      0.74    0.15    0.29
  WS02006243WS02006242 CONDUIT     48.19     0  02:24      0.59    0.10    0.41
  WS02006242WS02006240 CONDUIT     48.04     0  02:27      0.64    0.19    0.51
  WS02006240WS02006239 CONDUIT     48.53     0  02:29      0.58    0.15    0.53
  WS02006239WS02006238 CONDUIT     71.07     0  00:01      0.67    0.23    0.64
  WS02006238WS02006235 CONDUIT     94.85     0  00:11      1.25    0.21    0.69
  WS02006235WS02006234 CONDUIT    177.01     0  02:32      0.93    1.87    0.64
  WS02006234WS02006232 CONDUIT    178.15     0  02:32      1.13    0.36    0.73
  WS02006232WS02006231 CONDUIT    179.30     0  02:32      0.67    0.38    0.72
  WS02006231WS02006230 CONDUIT    180.83     0  02:33      1.01    2.74    0.63
  WS02006230WS02006229 CONDUIT    193.20     0  02:35      0.86    4.30    1.00
  WS02006228WS02006109 CONDUIT    420.50     0  02:23      0.84    1.84    1.00
  WS02006116WS02004401 CONDUIT    425.10     0  02:26      0.73    0.59    0.75
  WS02006115WS02006116 CONDUIT    426.17     0  02:26      0.82    0.55    0.67
  WS02006113WS02006111 CONDUIT    432.07     0  02:24      2.26    0.52    0.41
  WS02006112WS02006115 CONDUIT    428.21     0  02:25      0.66    0.25    0.79
  WS02006111WS02006112 CONDUIT    422.69     0  02:24      1.32    0.20    0.65
  WS02006110WS02006113 CONDUIT    421.80     0  02:24      1.05    0.38    0.75
  WS02006109WS02006110 CONDUIT    421.74     0  02:23      0.86    0.81    0.95
  WS02004411WS02004412 CONDUIT    421.10     0  02:31      0.82    0.60    0.62
  WS02004401WS02004402 CONDUIT    424.43     0  02:27      0.77    0.51    0.78
  WS02004413WS02003067 CONDUIT    420.64     0  02:32      0.97    0.18    0.54
  WS02004412WS02004413 CONDUIT    420.76     0  02:31      0.71    0.28    0.71
  WS02004410WS02004411 CONDUIT    421.67     0  02:30      0.85    0.58    0.61
  WS02004409WS02004410 CONDUIT    422.61     0  02:30      0.89    0.55    0.59
  WS02004407WS02004409 CONDUIT    423.97     0  02:29      1.39    0.15    0.42
  WS02004406WS02004407 CONDUIT    424.00     0  02:29      0.90    0.19    0.58
  WS02004405WS02004406 CONDUIT    424.04     0  02:28      0.66    0.84    0.89
  WS02004404WS02004405 CONDUIT    424.04     0  02:28      0.84    4.15    0.89
  WS02004403WS02004404 CONDUIT    423.96     0  02:28      0.74    0.31    0.85
  WS02004402WS02004403 CONDUIT    424.12     0  02:27      0.75    0.61    0.80
  WS02004139WS02001211 CONDUIT    190.80     0  02:50      0.69    0.24    0.46
  WS02004138WS02004139 CONDUIT    190.79     0  00:00      2.94    0.04    0.33
  WS02003067WS02003066 CONDUIT    420.66     0  02:32      1.05    0.13    0.38
  WS02001213WS02003059 CONDUIT    200.31     0  02:49      0.65    0.33    0.64
  WS02001212WS02001213 CONDUIT    199.22     0  02:49      1.03    0.31    0.33
  WS02001211WS02001212 CONDUIT    198.72     0  02:50      0.54    0.15    0.50
  WS02003072WS02003073 CONDUIT    630.94     0  02:36      1.50    1.36    0.40
  WS02003069WS02003072 CONDUIT    630.97     0  02:35      1.43    0.30    0.41
  WS02003060WS02003069 CONDUIT    630.68     0  02:35      1.69    0.25    0.36
  WS02003059WS02003060 CONDUIT    201.82     0  02:48      0.67    0.13    0.55
  HS02004901HS02004770 CONDUIT     13.25     0  02:12      0.05    0.05    0.35
  HS02004876HS02004881 CONDUIT     45.37     0  02:16      0.68    0.48    0.10
  HS02004870HS02004876 CONDUIT     36.11     0  02:17      0.47    0.02    0.11
  HS02004842HS02004848 CONDUIT      6.65     0  02:29      0.03    0.00    0.28
  HS02004837HS02004842 CONDUIT      6.88     0  02:30      0.41    0.00    0.30
  HS02004830HS02004837 CONDUIT     28.29     0  02:17      0.48    0.03    0.08
  HS02004824HS02004830 CONDUIT     28.44     0  02:17      0.51    0.04    0.08
  HS02004817HS02004824 CONDUIT     47.60     0  02:20      0.17    0.02    0.42
  HS02004770HS02004777 CONDUIT     67.52     0  02:12      0.27    0.12    0.36
  HS02004799HS02004480 CONDUIT    166.88     0  02:14      0.67    0.21    0.35
  HS02004792HS02004799 CONDUIT    152.48     0  02:14      0.77    0.09    0.28
  HS02004788HS02004792 CONDUIT     88.67     0  02:15      0.91    0.06    0.14
  HS02004785HS02004788 CONDUIT     67.18     0  02:14      0.58    0.51    0.17
  HS02004777HS02004785 CONDUIT     67.12     0  02:14      0.32    0.08    0.30
  HS02004480HS02004478 CONDUIT    197.15     0  02:15      1.06    0.83    0.26
  HS02004479HS02004480 CONDUIT     30.93     0  02:16      0.15    0.03    0.34
  HS02004862HS02004870 CONDUIT     26.53     0  02:18      0.52    0.03    0.07
  HS02004848HS02004852 CONDUIT     11.06     0  02:17      0.35    0.01    0.05
  HS02004856HS02004862 CONDUIT     18.14     0  02:17      0.38    0.02    0.07
  HS02004852HS02004856 CONDUIT     11.02     0  02:18      0.16    0.01    0.10
  HS02004802HS02004478 CONDUIT     66.64     0  02:20      0.34    0.06    0.29
  HS02004478WS02006287 CONDUIT    261.60     0  02:16      1.45    0.07    0.20
  HS02004817HS02004807 CONDUIT     48.93     0  02:22      0.13    0.03    0.55
  HS02004807HS02004802 CONDUIT     66.13     0  02:19      0.29    0.13    0.33
  YS02001759YS02001757 CONDUIT    291.00     0  03:03      0.37    0.21    1.00
  YS02001762YS02001759 CONDUIT    165.84     0  03:03      0.21    0.19    1.00
  YS02001765YS02001762 CONDUIT    162.28     0  03:03      0.23    0.15    1.00
  YS02001770YS02001767 CONDUIT    160.24     0  03:03      0.30    0.63    1.00
  YS02001774YS02001770 CONDUIT     61.09     0  03:04      0.14    0.04    1.00
  YS02001779YS02001774 CONDUIT     60.79     0  03:04      0.08    0.03    1.00
  YS02001649YS02001757 CONDUIT    453.56     0  03:02      0.58    0.28    1.00
  YS02001767YS02001765 CONDUIT    161.69     0  03:03      0.26    0.20    1.00
  YS02006561YS02001783 CONDUIT    442.10     0  02:54      1.94    0.23    0.52
  YS02001783YS02001784 CONDUIT    441.95     0  02:55      1.38    0.61    0.78
  YS02001784YS02001785 CONDUIT    443.01     0  02:55      1.48    1.03    0.82
  YS02001788YS02001790 CONDUIT    443.15     0  02:55      2.04    0.33    0.93
  YS02001790YS02001791 CONDUIT    454.98     0  03:11      2.42    0.50    1.00
  YS02001791YS02001793 CONDUIT    681.33     0  03:03      4.88    0.29    1.00
  YS02001910YS02001907 CONDUIT    140.47     0  03:03      0.49    0.08    0.83
  YS02001786YS02001788 CONDUIT    443.07     0  02:55      1.93    0.85    0.85
  YS02001915YS02001910 CONDUIT    139.70     0  03:01      0.45    0.07    0.62
  YS02001918YS02001915 CONDUIT     48.80     0  03:04      0.44    0.03    0.34
  YS02001923YS02001920 CONDUIT     44.17     0  03:01      0.51    0.02    0.17
  YS02001926YS02001923 CONDUIT     44.13     0  03:01      0.56    0.06    0.16
  YS02001929YS02001926 CONDUIT     44.17     0  03:01      0.60    0.02    0.15
  YS02001920YS02001918 CONDUIT     47.28     0  03:03      0.52    0.05    0.20
  YS02001629YS02163301 CONDUIT    101.04     0  03:03      0.13    0.12    1.00
  YS02001619YS02001622 CONDUIT    132.75     0  03:09      0.70    0.20    1.00
  YS02001622YS02001625 CONDUIT    178.81     0  03:09      0.29    0.10    1.00
  YS02001625YS02001629 CONDUIT    178.54     0  03:09      0.28    0.08    1.00
  YS02163301YS02001633 CONDUIT    100.54     0  03:03      0.13    0.09    1.00
  YS02163601YS02164001 CONDUIT    198.43     0  03:03      0.25    0.18    1.00
  YS02164001YS02001641 CONDUIT    197.38     0  03:03      0.25    0.27    1.00
  YS02001641YS02001644 CONDUIT    196.96     0  03:03      0.25    0.64    1.00
  YS02001647YS02001649 CONDUIT    321.75     0  04:21      0.41    0.17    1.00
  YS02006553YS02006556 CONDUIT    302.24     0  03:02      0.41    0.26    0.91
  YS02006556YS02006558 CONDUIT    303.01     0  03:02      0.40    0.24    0.93
  YSB6556YSB1171       CONDUIT     16.80     0  02:18      0.07    0.02    0.61
  YS02001907YS02006553 CONDUIT    301.83     0  03:02      0.34    0.36    1.00
  YS02006558YS02006561 CONDUIT    468.50     0  02:54      2.66    1.04    0.60
  YS02001633YS02163601 CONDUIT    198.55     0  02:58      0.25    0.21    1.00
  YS02001644YS02001647 CONDUIT    321.91     0  04:21      0.41    0.19    1.00
  YS02001745YS02001748 CONDUIT    253.64     0  03:37      1.50    0.10    0.93
  YS02001748YS02001751 CONDUIT    423.26     0  03:05      1.16    0.21    1.00
  YS02001751YS02001754 CONDUIT    196.20     0  03:05      1.00    0.09    1.00
  YS02001754YS02001757 CONDUIT    204.52     0  03:05      0.33    0.08    1.00
  YS02001882YS02001884 CONDUIT      4.88     0  02:07      0.06    0.01    0.55
  YS02001884YS02001887 CONDUIT     13.65     0  02:10      0.06    0.02    0.65
  YS02001890YS02001895 CONDUIT    167.12     0  02:43      0.33    0.08    0.62
  YS02001895YS02001898 CONDUIT    166.43     0  02:42      0.49    0.29    0.48
  YS02001898YS02001901 CONDUIT    165.64     0  02:44      0.37    0.11    0.56
  YS02001901YS02001904 CONDUIT    165.44     0  02:43      0.33    0.26    0.61
  YS02001904YS02001907 CONDUIT    165.03     0  02:44      0.26    0.06    0.77
  YS02001887YS02001890 CONDUIT    167.63     0  02:43      0.29    0.29    0.70
  YS02001652YS02001649 CONDUIT    169.83     0  02:56      0.33    0.08    1.00
  YS02001655YS02001652 CONDUIT    170.17     0  03:06      1.07    0.08    1.00
  YS02001658YS02001655 CONDUIT    364.38     0  03:08      1.34    0.15    1.00
  YS02001661YS02001658 CONDUIT    375.47     0  03:30      1.56    0.15    1.00
  YS02001664YS02001661 CONDUIT    398.46     0  04:00      1.29    0.12    0.71
  YSB1154YSB6556       CONDUIT     16.51     0  02:15      0.19    0.03    0.50
  YSB1174YSB1171       CONDUIT     14.88     0  02:09      0.06    0.02    0.62
  YSB1171HS02004479    CONDUIT     30.69     0  02:16      0.54    0.02    0.48
  HS02004881HS02006253 CONDUIT     50.68     0  02:16      1.84    0.01    0.04
  YS02001793JiankangQianchi CONDUIT   1187.37     0  03:02     13.02    0.09    1.00
  YS02001757CaochengTiaoxuchi CONDUIT    761.76     0  03:03      1.42    0.33    1.00
  WSF200WS02003060     CONDUIT    420.61     0  02:33      1.60    0.09    0.28
  1                    CONDUIT    632.72     0  02:37      2.93    0.22    0.32
  2                    CONDUIT      0.00     0  00:00      0.00    0.00    0.00
  3                    CONDUIT    250.55     0  00:00      8.26    0.40    0.46
  4                    CONDUIT      0.00     0  00:00      0.00    0.00    0.00
  CC-Pump-1            PUMP         0.00     0  00:00              0.00
  CC-Pump-2            PUMP         0.00     0  00:00              0.00
  JK-Pump-1            PUMP       300.00     0  00:00              1.00
  JK-Pump-2            PUMP       300.00     0  02:21              1.00
  XR-Pump-1            PUMP        95.00     0  00:00              1.00
  XR-Pump-2            PUMP        95.00     0  00:00              1.00
  XR-Pump-3            PUMP         0.00     0  00:00              0.00
  XR-Pump-4            PUMP        95.00     0  00:20              1.00
  
  
  ***************************
  Flow Classification Summary
  ***************************
  
  -------------------------------------------------------------------------------------
                      Adjusted    ---------- Fraction of Time in Flow Class ---------- 
                       /Actual         Up    Down  Sub   Sup   Up    Down  Norm  Inlet 
  Conduit               Length    Dry  Dry   Dry   Crit  Crit  Crit  Crit  Ltd   Ctrl  
  -------------------------------------------------------------------------------------
  WS02003066WSF200        1.00   0.10  0.00  0.00  0.00  0.90  0.00  0.00  0.75  0.00
  WS02006287WS02006284    1.00   0.06  0.02  0.00  0.53  0.38  0.00  0.00  0.76  0.00
  WS02006284WS02006280    1.00   0.07  0.00  0.00  0.00  0.00  0.00  0.93  0.00  0.00
  WS02006280WS02006229    1.00   0.07  0.00  0.00  0.00  0.00  0.00  0.93  0.00  0.00
  WS02006229WS02006228    1.00   0.00  0.00  0.00  0.98  0.00  0.00  0.02  0.00  0.00
  WS02006256WS02006235    1.00   0.00  0.00  0.00  0.99  0.01  0.00  0.00  0.00  0.00
  WS02006253WS02006251    1.00   0.05  0.02  0.00  0.93  0.00  0.00  0.00  0.00  0.00
  WS02006252WS02006251    1.00   1.00  0.00  0.00  0.00  0.00  0.00  0.00  0.00  0.00
  WS02006251WS02006249    1.00   0.00  0.00  0.00  1.00  0.00  0.00  0.00  0.91  0.00
  WS02006249WS02006248    1.00   0.00  0.03  0.00  0.09  0.00  0.87  0.00  0.00  0.00
  WS02006248WS02006247    1.00   0.04  0.00  0.00  0.96  0.00  0.00  0.00  0.83  0.00
  WS02006247WS02006245    1.00   0.03  0.00  0.00  0.97  0.00  0.00  0.00  0.00  0.00
  WS02006245WS02006243    1.00   0.02  0.01  0.00  0.90  0.00  0.00  0.07  0.16  0.00
  WS02006243WS02006242    1.00   0.01  0.01  0.00  0.98  0.00  0.00  0.00  0.31  0.00
  WS02006242WS02006240    1.00   0.01  0.00  0.00  0.99  0.00  0.00  0.00  0.00  0.00
  WS02006240WS02006239    1.00   0.00  0.00  0.00  0.93  0.00  0.00  0.07  0.01  0.00
  WS02006239WS02006238    1.00   0.00  0.00  0.00  1.00  0.00  0.00  0.00  0.01  0.00
  WS02006238WS02006235    1.00   0.00  0.00  0.00  1.00  0.00  0.00  0.00  0.00  0.00
  WS02006235WS02006234    1.00   0.00  0.00  0.00  0.93  0.00  0.07  0.00  0.00  0.00
  WS02006234WS02006232    1.00   0.00  0.00  0.00  1.00  0.00  0.00  0.00  0.16  0.00
  WS02006232WS02006231    1.00   0.00  0.00  0.00  0.99  0.00  0.01  0.00  0.00  0.00
  WS02006231WS02006230    1.00   0.01  0.00  0.00  0.22  0.00  0.77  0.00  0.00  0.00
  WS02006230WS02006229    1.00   0.00  0.00  0.00  0.98  0.00  0.00  0.02  0.01  0.00
  WS02006228WS02006109    1.00   0.00  0.00  0.00  0.99  0.00  0.00  0.01  0.00  0.00
  WS02006116WS02004401    1.00   0.04  0.00  0.00  0.96  0.00  0.00  0.00  0.00  0.00
  WS02006115WS02006116    1.00   0.04  0.00  0.00  0.95  0.00  0.00  0.01  0.00  0.00
  WS02006113WS02006111    1.00   0.03  0.00  0.00  0.00  0.97  0.00  0.00  0.16  0.00
  WS02006112WS02006115    1.00   0.04  0.00  0.00  0.96  0.00  0.00  0.00  0.00  0.00
  WS02006111WS02006112    1.00   0.04  0.00  0.00  0.96  0.00  0.00  0.00  0.98  0.00
  WS02006110WS02006113    1.00   0.02  0.01  0.00  0.97  0.00  0.00  0.00  0.00  0.00
  WS02006109WS02006110    1.00   0.00  0.02  0.00  0.97  0.00  0.01  0.00  0.00  0.00
  WS02004411WS02004412    1.00   0.06  0.00  0.00  0.94  0.00  0.00  0.00  0.00  0.00
  WS02004401WS02004402    1.00   0.04  0.00  0.00  0.96  0.00  0.00  0.00  0.00  0.00
  WS02004413WS02003067    1.00   0.06  0.02  0.00  0.00  0.00  0.91  0.00  0.00  0.00
  WS02004412WS02004413    1.00   0.06  0.00  0.00  0.94  0.00  0.00  0.00  0.03  0.00
  WS02004410WS02004411    1.00   0.06  0.00  0.00  0.94  0.00  0.00  0.00  0.04  0.00
  WS02004409WS02004410    1.00   0.06  0.00  0.00  0.94  0.00  0.00  0.00  0.04  0.00
  WS02004407WS02004409    1.00   0.06  0.00  0.00  0.94  0.00  0.00  0.00  0.89  0.00
  WS02004406WS02004407    1.00   0.00  0.06  0.00  0.94  0.00  0.00  0.00  0.00  0.00
  WS02004405WS02004406    1.00   0.00  0.00  0.00  1.00  0.00  0.00  0.00  0.00  0.00
  WS02004404WS02004405    1.00   0.00  0.00  0.00  1.00  0.00  0.00  0.00  0.00  0.00
  WS02004403WS02004404    1.00   0.00  0.04  0.00  0.96  0.00  0.00  0.00  0.01  0.00
  WS02004402WS02004403    1.00   0.04  0.00  0.00  0.96  0.00  0.00  0.00  0.00  0.00
  WS02004139WS02001211    1.00   0.00  0.00  0.00  0.99  0.00  0.01  0.00  0.00  0.00
  WS02004138WS02004139    1.00   0.00  0.00  0.00  0.98  0.01  0.00  0.00  1.00  0.00
  WS02003067WS02003066    1.00   0.09  0.01  0.00  0.90  0.00  0.00  0.00  0.00  0.00
  WS02001213WS02003059    1.00   0.00  0.01  0.00  0.99  0.00  0.00  0.00  0.00  0.00
  WS02001212WS02001213    1.00   0.01  0.00  0.00  0.26  0.00  0.73  0.00  0.00  0.00
  WS02001211WS02001212    1.00   0.00  0.01  0.00  0.99  0.00  0.00  0.00  0.00  0.00
  WS02003072WS02003073    1.00   0.00  0.00  0.00  0.00  0.00  0.00  1.00  0.00  0.00
  WS02003069WS02003072    1.00   0.00  0.00  0.00  0.99  0.01  0.00  0.00  0.65  0.00
  WS02003060WS02003069    1.00   0.00  0.00  0.00  0.98  0.02  0.00  0.00  0.23  0.00
  WS02003059WS02003060    1.00   0.00  0.00  0.00  0.99  0.01  0.00  0.00  0.01  0.00
  HS02004901HS02004770    1.00   0.07  0.00  0.00  0.93  0.00  0.00  0.00  0.02  0.00
  HS02004876HS02004881    1.00   0.04  0.00  0.00  0.96  0.00  0.00  0.00  0.00  0.00
  HS02004870HS02004876    1.00   0.01  0.00  0.00  0.99  0.00  0.00  0.00  0.95  0.00
  HS02004842HS02004848    1.00   0.00  0.07  0.00  0.93  0.00  0.00  0.00  0.67  0.00
  HS02004837HS02004842    1.00   0.00  0.00  0.00  0.99  0.01  0.00  0.00  0.11  0.00
  HS02004830HS02004837    1.00   0.00  0.00  0.00  1.00  0.00  0.00  0.00  0.99  0.00
  HS02004824HS02004830    1.00   0.00  0.00  0.00  1.00  0.00  0.00  0.00  0.00  0.00
  HS02004817HS02004824    1.00   0.00  0.00  0.00  1.00  0.00  0.00  0.00  1.00  0.00
  HS02004770HS02004777    1.00   0.00  0.07  0.00  0.93  0.00  0.00  0.00  0.07  0.00
  HS02004799HS02004480    1.00   0.00  0.04  0.00  0.91  0.00  0.05  0.00  0.00  0.00
  HS02004792HS02004799    1.00   0.00  0.00  0.00  0.98  0.02  0.00  0.00  0.98  0.00
  HS02004788HS02004792    1.00   0.00  0.00  0.00  0.98  0.02  0.00  0.00  0.98  0.00
  HS02004785HS02004788    1.00   0.00  0.00  0.00  1.00  0.00  0.00  0.00  0.00  0.00
  HS02004777HS02004785    1.00   0.00  0.00  0.00  1.00  0.00  0.00  0.00  0.20  0.00
  HS02004480HS02004478    1.00   0.08  0.00  0.00  0.60  0.00  0.00  0.32  0.00  0.00
  HS02004479HS02004480    1.00   0.04  0.00  0.00  0.96  0.00  0.00  0.00  0.15  0.00
  HS02004862HS02004870    1.00   0.00  0.00  0.00  1.00  0.00  0.00  0.00  0.06  0.00
  HS02004848HS02004852    1.00   0.07  0.00  0.00  0.93  0.00  0.00  0.00  0.71  0.00
  HS02004856HS02004862    1.00   0.00  0.11  0.00  0.89  0.00  0.00  0.00  0.75  0.00
  HS02004852HS02004856    1.00   0.07  0.01  0.00  0.92  0.00  0.00  0.00  0.83  0.00
  HS02004802HS02004478    1.00   0.07  0.01  0.00  0.92  0.00  0.00  0.00  0.01  0.00
  HS02004478WS02006287    1.00   0.09  0.00  0.00  0.76  0.15  0.00  0.00  0.74  0.00
  HS02004817HS02004807    1.00   0.00  0.07  0.00  0.93  0.00  0.00  0.00  0.00  0.00
  HS02004807HS02004802    1.00   0.07  0.00  0.00  0.92  0.00  0.00  0.00  0.01  0.00
  YS02001759YS02001757    1.00   0.00  0.00  0.00  1.00  0.00  0.00  0.00  0.17  0.00
  YS02001762YS02001759    1.00   0.00  0.00  0.00  1.00  0.00  0.00  0.00  0.04  0.00
  YS02001765YS02001762    1.00   0.00  0.00  0.00  1.00  0.00  0.00  0.00  0.21  0.00
  YS02001770YS02001767    1.00   0.00  0.00  0.00  1.00  0.00  0.00  0.00  0.00  0.00
  YS02001774YS02001770    1.00   0.00  0.08  0.00  0.92  0.00  0.00  0.00  0.06  0.00
  YS02001779YS02001774    1.00   0.00  0.00  0.00  1.00  0.00  0.00  0.00  0.26  0.00
  YS02001649YS02001757    1.00   0.00  0.00  0.00  1.00  0.00  0.00  0.00  0.19  0.00
  YS02001767YS02001765    1.00   0.00  0.00  0.00  1.00  0.00  0.00  0.00  0.01  0.00
  YS02006561YS02001783    1.00   0.11  0.00  0.00  0.16  0.73  0.00  0.00  0.63  0.00
  YS02001783YS02001784    1.00   0.00  0.11  0.00  0.89  0.00  0.00  0.00  0.00  0.00
  YS02001784YS02001785    1.00   0.00  0.00  0.00  1.00  0.00  0.00  0.00  0.25  0.00
  YS02001788YS02001790    1.00   0.00  0.00  0.00  0.36  0.64  0.00  0.00  0.72  0.00
  YS02001790YS02001791    1.00   0.00  0.00  0.00  0.30  0.70  0.00  0.00  0.47  0.00
  YS02001791YS02001793    1.00   0.00  0.00  0.00  0.33  0.67  0.00  0.00  0.03  0.00
  YS02001910YS02001907    1.00   0.00  0.00  0.00  0.96  0.00  0.00  0.04  0.13  0.00
  YS02001786YS02001788    1.00   0.00  0.00  0.00  0.32  0.68  0.00  0.00  0.00  0.00
  YS02001915YS02001910    1.00   0.00  0.00  0.00  0.98  0.02  0.00  0.00  0.23  0.00
  YS02001918YS02001915    1.00   0.00  0.01  0.00  0.97  0.02  0.00  0.00  0.70  0.00
  YS02001923YS02001920    1.00   0.00  0.00  0.00  1.00  0.00  0.00  0.00  1.00  0.00
  YS02001926YS02001923    1.00   0.00  0.05  0.00  0.00  0.00  0.95  0.00  0.00  0.00
  YS02001929YS02001926    1.00   0.00  0.07  0.00  0.93  0.00  0.00  0.00  0.87  0.00
  YS02001920YS02001918    1.00   0.00  0.01  0.00  0.99  0.00  0.00  0.00  0.00  0.00
  YS02001629YS02163301    1.00   0.09  0.01  0.00  0.90  0.00  0.00  0.00  0.00  0.00
  YS02001619YS02001622    1.00   0.07  0.00  0.00  0.93  0.00  0.00  0.00  0.00  0.00
  YS02001622YS02001625    1.00   0.07  0.00  0.00  0.93  0.00  0.00  0.00  0.12  0.00
  YS02001625YS02001629    1.00   0.07  0.04  0.00  0.87  0.00  0.02  0.00  0.00  0.00
  YS02163301YS02001633    1.00   0.00  0.09  0.00  0.91  0.00  0.00  0.00  0.00  0.00
  YS02163601YS02164001    1.00   0.00  0.06  0.00  0.94  0.00  0.00  0.00  0.00  0.00
  YS02164001YS02001641    1.00   0.01  0.04  0.00  0.94  0.00  0.00  0.00  0.07  0.00
  YS02001641YS02001644    1.00   0.00  0.01  0.00  0.99  0.00  0.00  0.00  0.00  0.00
  YS02001647YS02001649    1.00   0.00  0.10  0.00  0.89  0.00  0.00  0.00  0.01  0.00
  YS02006553YS02006556    1.00   0.02  0.00  0.00  0.98  0.00  0.00  0.00  0.03  0.00
  YS02006556YS02006558    1.00   0.00  0.01  0.00  0.99  0.00  0.00  0.00  0.00  0.00
  YSB6556YSB1171          1.00   0.05  0.02  0.00  0.93  0.00  0.00  0.00  0.00  0.00
  YS02001907YS02006553    1.00   0.00  0.03  0.00  0.96  0.00  0.00  0.00  0.00  0.00
  YS02006558YS02006561    1.00   0.11  0.00  0.00  0.00  0.89  0.00  0.00  0.63  0.00
  YS02001633YS02163601    1.00   0.00  0.01  0.00  0.99  0.00  0.00  0.00  0.19  0.00
  YS02001644YS02001647    1.00   0.00  0.11  0.00  0.89  0.00  0.00  0.00  0.00  0.00
  YS02001745YS02001748    1.00   0.00  0.00  0.00  0.82  0.02  0.00  0.16  0.07  0.00
  YS02001748YS02001751    1.00   0.00  0.00  0.00  0.97  0.03  0.00  0.00  0.23  0.00
  YS02001751YS02001754    1.00   0.00  0.00  0.00  0.88  0.00  0.00  0.11  0.01  0.00
  YS02001754YS02001757    1.00   0.00  0.00  0.00  0.99  0.01  0.00  0.00  0.26  0.00
  YS02001882YS02001884    1.00   0.09  0.01  0.00  0.91  0.00  0.00  0.00  0.00  0.00
  YS02001884YS02001887    1.00   0.05  0.01  0.00  0.93  0.00  0.00  0.00  0.00  0.00
  YS02001890YS02001895    1.00   0.00  0.09  0.00  0.90  0.00  0.00  0.00  0.00  0.00
  YS02001895YS02001898    1.00   0.10  0.00  0.00  0.89  0.00  0.01  0.00  0.00  0.00
  YS02001898YS02001901    1.00   0.09  0.01  0.00  0.90  0.00  0.00  0.00  0.02  0.00
  YS02001901YS02001904    1.00   0.09  0.00  0.00  0.91  0.00  0.00  0.00  0.00  0.00
  YS02001904YS02001907    1.00   0.00  0.09  0.00  0.91  0.00  0.00  0.00  0.00  0.00
  YS02001887YS02001890    1.00   0.00  0.00  0.00  0.96  0.00  0.04  0.00  0.00  0.00
  YS02001652YS02001649    1.00   0.00  0.00  0.00  1.00  0.00  0.00  0.00  0.25  0.00
  YS02001655YS02001652    1.00   0.00  0.00  0.00  0.88  0.00  0.00  0.11  0.02  0.00
  YS02001658YS02001655    1.00   0.00  0.08  0.00  0.88  0.04  0.00  0.00  0.09  0.00
  YS02001661YS02001658    1.00   0.08  0.00  0.00  0.82  0.09  0.00  0.00  0.10  0.00
  YS02001664YS02001661    1.00   0.07  0.00  0.00  0.76  0.17  0.00  0.00  0.31  0.00
  YSB1154YSB6556          1.00   0.07  0.00  0.00  0.93  0.00  0.00  0.00  0.02  0.00
  YSB1174YSB1171          1.00   0.05  0.01  0.00  0.94  0.00  0.00  0.00  0.00  0.00
  YSB1171HS02004479       1.00   0.04  0.00  0.00  0.95  0.00  0.00  0.00  0.13  0.00
  HS02004881HS02006253    1.00   0.05  0.00  0.00  0.00  0.00  0.00  0.95  0.00  0.00
  YS02001793JiankangQianchi    1.00   0.00  0.00  0.00  0.62  0.37  0.00  0.00  0.16  0.00
  YS02001757CaochengTiaoxuchi    1.00   0.00  0.12  0.00  0.88  0.00  0.00  0.00  0.00  0.00
  WSF200WS02003060        1.00   0.00  0.10  0.00  0.80  0.10  0.00  0.00  0.64  0.00
  1                       1.00   0.00  0.00  0.00  0.00  1.00  0.00  0.00  0.18  0.00
  2                       1.00   1.00  0.00  0.00  0.00  0.00  0.00  0.00  0.00  0.00
  3                       1.00   0.23  0.00  0.00  0.00  0.77  0.00  0.00  0.26  0.00
  4                       1.00   1.00  0.00  0.00  0.00  0.00  0.00  0.00  0.00  0.00
  
  
  *************************
  Conduit Surcharge Summary
  *************************
  
  ----------------------------------------------------------------------------
                                                           Hours        Hours 
                         --------- Hours Full --------   Above Full   Capacity
  Conduit                Both Ends  Upstream  Dnstream   Normal Flow   Limited
  ----------------------------------------------------------------------------
  WS02006229WS02006228        0.23      0.27      0.23      0.72         0.23
  WS02006256WS02006235        4.67      4.67      6.38      4.37         0.01
  WS02006235WS02006234        0.01      0.01      0.01      4.39         0.01
  WS02006231WS02006230        0.01      0.01      0.01      5.69         0.01
  WS02006230WS02006229        0.45      0.50      0.45      5.85         0.45
  WS02006228WS02006109        0.25      0.36      0.25      1.13         0.25
  WS02006111WS02006112        0.01      0.01      0.83      0.01         0.01
  WS02006110WS02006113        0.01      0.01      0.31      0.01         0.01
  WS02006109WS02006110        0.01      0.01      0.36      0.01         0.01
  WS02004404WS02004405        0.01      0.01      0.01      5.03         0.01
  WS02003072WS02003073        0.01      0.01      0.01      1.05         0.01
  YS02001759YS02001757        5.39      5.39      5.46      0.01         0.01
  YS02001762YS02001759        5.35      5.35      5.39      0.01         0.02
  YS02001765YS02001762        5.32      5.32      5.35      0.01         0.01
  YS02001770YS02001767        5.29      5.29      5.30      0.01         0.47
  YS02001774YS02001770        5.26      5.26      5.34      0.01         0.01
  YS02001779YS02001774        4.78      4.78      5.34      0.01         0.01
  YS02001649YS02001757        5.36      5.36      5.46      0.01         0.01
  YS02001767YS02001765        5.30      5.30      5.32      0.01         0.02
  YS02001784YS02001785        0.01      0.01      0.01      0.42         0.01
  YS02001788YS02001790        0.01      0.01      0.71      0.01         0.01
  YS02001790YS02001791        0.71      0.71      0.88      0.01         0.01
  YS02001791YS02001793        0.88      0.88      1.24      0.01         0.01
  YS02001629YS02163301        5.26      5.26      5.28      0.01         0.01
  YS02001619YS02001622        4.44      4.44      4.49      0.01         0.01
  YS02001622YS02001625        4.49      4.49      5.16      0.01         0.01
  YS02001625YS02001629        4.47      4.47      5.16      0.01         0.01
  YS02163301YS02001633        5.28      5.28      5.33      0.01         0.01
  YS02163601YS02164001        5.33      5.33      5.37      0.01         0.01
  YS02164001YS02001641        5.33      5.33      5.33      0.01         0.01
  YS02001641YS02001644        5.33      5.33      5.34      0.01         0.51
  YS02001647YS02001649        5.10      5.10      5.36      0.01         0.01
  YS02001907YS02006553        0.46      0.46      0.78      0.01         0.01
  YS02006558YS02006561        0.01      0.01      0.01      0.12         0.01
  YS02001633YS02163601        5.31      5.31      5.37      0.01         0.01
  YS02001644YS02001647        5.10      5.10      5.34      0.01         0.01
  YS02001745YS02001748        0.01      0.01      4.09      0.01         0.01
  YS02001748YS02001751        4.22      4.22      4.51      0.01         0.01
  YS02001751YS02001754        4.51      4.51      4.90      0.01         0.01
  YS02001754YS02001757        5.09      5.09      5.46      0.01         0.01
  YS02001652YS02001649        5.13      5.13      5.36      0.01         0.01
  YS02001655YS02001652        4.57      4.57      5.05      0.01         0.01
  YS02001658YS02001655        4.11      4.11      4.57      0.01         0.01
  YS02001661YS02001658        0.01      0.01      4.11      0.01         0.01
  YS02001664YS02001661        0.01      0.01      0.37      0.01         0.01
  YS02001793JiankangQianchi        1.15      1.15      2.38      0.01         0.01
  YS02001757CaochengTiaoxuchi        4.28      4.28      5.46      0.01         0.01
  
  
  ***************
  Pumping Summary
  ***************
  
  ---------------------------------------------------------------------------------------------------------
                                                  Min       Avg       Max     Total     Power    % Time Off
                        Percent   Number of      Flow      Flow      Flow    Volume     Usage    Pump Curve
  Pump                 Utilized   Start-Ups       LPS       LPS       LPS  10^6 ltr     Kw-hr    Low   High
  ---------------------------------------------------------------------------------------------------------
  CC-Pump-1                0.00           0      0.00      0.00      0.00     0.000      0.00    0.0    0.0
  CC-Pump-2                0.00           0      0.00      0.00      0.00     0.000      0.00    0.0    0.0
  JK-Pump-1                4.26           1      0.00    252.73    300.00     0.179      2.80    0.0    0.0
  JK-Pump-2               97.86           1      0.00    231.00    300.00     4.027     48.51    0.0    0.0
  XR-Pump-1                4.26           1      0.00     88.26     95.00     0.086      1.01    0.0    0.0
  XR-Pump-2              100.00           1      0.00     95.00     95.00     2.679     17.23    0.0    0.0
  XR-Pump-3                0.00           0      0.00      0.00      0.00     0.000      0.00    0.0    0.0
  XR-Pump-4               97.86           1      0.00     94.63     95.00     2.593     16.22    0.0    0.0
  

  Analysis begun on:  Thu Jan  6 01:06:19 2022
  Analysis ended on:  Thu Jan  6 01:06:21 2022
  Total elapsed time: 00:00:02