
  EPA STORM WATER MANAGEMENT MODEL - VERSION 5.1 (Build 5.3.0.dev0)
  --------------------------------------------------------------

  WARNING 04: minimum elevation drop used for Conduit WS02004404WS02004405
  WARNING 03: negative offset ignored for Link YS02001904YS02001907
  
  *********************************************************
  NOTE: The summary statistics displayed in this report are
  based on results found at every computational time step,  
  not just on results from each reporting time step.
  *********************************************************
  
  ****************
  Analysis Options
  ****************
  Flow Units ............... LPS
  Process Models:
    Rainfall/Runoff ........ YES
    RDII ................... NO
    Snowmelt ............... NO
    Groundwater ............ NO
    Flow Routing ........... YES
    Ponding Allowed ........ NO
    Water Quality .......... NO
  Infiltration Method ...... HORTON
  Flow Routing Method ...... DYNWAVE
  Surcharge Method ......... EXTRAN
  Starting Date ............ 08/28/2015 08:00:00
  Ending Date .............. 08/28/2015 15:50:00
  Antecedent Dry Days ...... 8.0
  Report Time Step ......... 00:01:00
  Wet Time Step ............ 00:01:00
  Dry Time Step ............ 00:01:00
  Routing Time Step ........ 5.00 sec
  Variable Time Step ....... YES
  Maximum Trials ........... 8
  Number of Threads ........ 4
  Head Tolerance ........... 0.001500 m
  
  
  **************************        Volume         Depth
  Runoff Quantity Continuity     hectare-m            mm
  **************************     ---------       -------
  Total Precipitation ......         2.605         5.704
  Evaporation Loss .........         0.000         0.000
  Infiltration Loss ........         0.653         1.430
  Surface Runoff ...........         1.076         2.356
  Final Storage ............         0.876         1.919
  Continuity Error (%) .....        -0.018
  
  
  **************************        Volume        Volume
  Flow Routing Continuity        hectare-m      10^6 ltr
  **************************     ---------     ---------
  Dry Weather Inflow .......         0.616         6.165
  Wet Weather Inflow .......         1.075        10.755
  Groundwater Inflow .......         0.000         0.000
  RDII Inflow ..............         0.000         0.000
  External Inflow ..........         0.102         1.024
  External Outflow .........         1.146        11.460
  Flooding Loss ............         0.098         0.980
  Evaporation Loss .........         0.000         0.000
  Exfiltration Loss ........         0.000         0.000
  Initial Stored Volume ....         0.076         0.761
  Final Stored Volume ......         0.623         6.229
  Continuity Error (%) .....         0.182
  
  
  *************************
  Highest Continuity Errors
  *************************
  Node HS02004842 (29.23%)
  Node YS02001774 (26.92%)
  Node YS02001884 (23.52%)
  Node YSB1171 (7.25%)
  Node YS02001625 (6.20%)
  
  
  ***************************
  Time-Step Critical Elements
  ***************************
  Link 3 (75.48%)
  Link WS02006280WS02006229 (10.49%)
  Link WS02006238WS02006235 (4.08%)
  Link YS02001791YS02001793 (2.96%)
  
  
  ********************************
  Highest Flow Instability Indexes
  ********************************
  Link WS02006113WS02006111 (32)
  Link WS02006111WS02006112 (15)
  Link YS02164001YS02001641 (9)
  Link YS02001641YS02001644 (9)
  Link YS02001629YS02163301 (8)
  
  
  *************************
  Routing Time Step Summary
  *************************
  Minimum Time Step           :     0.50 sec
  Average Time Step           :     1.55 sec
  Maximum Time Step           :     5.00 sec
  Percent in Steady State     :    -0.00
  Average Iterations per Step :     2.91
  Percent Not Converging      :     9.83
  
  
  ***************************
  Subcatchment Runoff Summary
  ***************************
  
  ------------------------------------------------------------------------------------------------------------------------------
                            Total      Total      Total      Total     Imperv       Perv      Total       Total     Peak  Runoff
                           Precip      Runon       Evap      Infil     Runoff     Runoff     Runoff      Runoff   Runoff   Coeff
  Subcatchment                 mm         mm         mm         mm         mm         mm         mm    10^6 ltr      LPS
  ------------------------------------------------------------------------------------------------------------------------------
  sub0                       5.70       0.00       0.00       0.40       4.04       0.00       4.04        0.00     1.40   0.708
  sub1                       5.70       0.00       0.00       0.63       3.82       0.00       3.82        0.03     7.17   0.670
  sub2                       5.70       0.00       0.00       2.11       2.69       0.00       2.69        0.03     6.32   0.471
  sub3                       5.70       0.00       0.00       2.11       2.65       0.00       2.65        0.06    12.95   0.465
  sub4                       5.70       0.00       0.00       0.63       3.68       0.00       3.68        0.08    14.48   0.646
  sub5                       5.70       0.00       0.00       0.40       3.99       0.00       3.99        0.05    12.76   0.700
  sub7                       5.70       0.00       0.00       0.51       3.94       0.00       3.94        0.01     4.53   0.690
  sub8                       5.70       0.00       0.00       0.51       3.93       0.00       3.93        0.03     7.98   0.688
  sub9                       5.70       0.00       0.00       0.51       3.93       0.00       3.93        0.02     5.91   0.688
  sub10                      5.70       0.00       0.00       0.46       3.96       0.00       3.96        0.04    12.75   0.694
  sub11                      5.70       0.00       0.00       0.46       3.97       0.00       3.97        0.05    15.02   0.697
  sub12                      5.70       0.00       0.00       0.74       3.77       0.00       3.77        0.03    12.81   0.662
  sub14                      5.70       0.00       0.00       0.51       3.92       0.00       3.92        0.04    11.54   0.688
  sub15                      5.70       0.00       0.00       1.71       3.01       0.00       3.01        0.05    15.64   0.529
  sub16                      5.70       0.00       0.00       1.88       2.90       0.00       2.90        0.03    11.24   0.509
  sub17                      5.70       0.00       0.00       1.83       2.94       0.00       2.94        0.03     9.07   0.516
  sub22                      5.70       0.00       0.00       2.45       2.46       0.00       2.46        0.16    51.43   0.432
  sub23                      5.70       0.00       0.00       2.11       2.72       0.00       2.72        0.13    43.83   0.478
  sub60                      5.70       0.00       0.00       0.68       2.62       0.00       2.62        0.79    72.79   0.459
  sub61                      5.70       0.00       0.00       0.97       2.81       0.00       2.81        0.87    91.48   0.492
  sub62                      5.70       0.00       0.00       0.46       3.01       0.00       3.01        0.92    93.44   0.528
  sub63                      5.70       0.00       0.00       1.65       2.51       0.00       2.51        0.76    85.46   0.439
  sub64                      5.70       0.00       0.00       0.86       2.50       0.00       2.50        0.76    69.11   0.438
  sub65                      5.70       0.00       0.00       0.74       2.53       0.00       2.53        0.78    70.10   0.444
  sub66                      5.70       0.00       0.00       1.65       2.18       0.00       2.18        0.67    63.40   0.383
  sub67                      5.70       0.00       0.00       0.46       3.32       0.00       3.32        1.02   120.20   0.582
  sub68                      5.70       0.00       0.00       0.80       2.99       0.00       2.99        0.92   101.20   0.524
  sub69                      5.70       0.00       0.00       0.86       3.24       0.00       3.24        0.76   100.83   0.568
  sub70                      5.70       3.31       0.00       3.06       3.95       0.00       3.95        0.90    80.33   0.438
  sub71                      5.70       0.00       0.00       0.46       2.87       0.00       2.87        0.68    65.18   0.504
  sub72                      5.70       0.00       0.00       0.40       2.01       0.00       2.01        0.41    30.52   0.353
  sub73                      5.70       3.84       0.00       3.25       4.00       0.00       4.00        0.94    68.82   0.419
  sub74                      5.70       0.00       0.00       4.28       0.98       0.00       0.98        0.39    56.34   0.171
  
  
  ******************
  Node Depth Summary
  ******************
  
  ---------------------------------------------------------------------------------
                                 Average  Maximum  Maximum  Time of Max    Reported
                                   Depth    Depth      HGL   Occurrence   Max Depth
  Node                 Type       Meters   Meters   Meters  days hr:min      Meters
  ---------------------------------------------------------------------------------
  WS02001211           JUNCTION     0.67     0.70     5.54     0  02:48        0.70
  WS02001212           JUNCTION     0.39     0.42     5.48     0  02:47        0.42
  WS02001213           JUNCTION     0.59     0.65     5.42     0  02:46        0.65
  WS02003069           JUNCTION     0.37     0.47     5.05     0  02:45        0.47
  WS02003072           JUNCTION     0.44     0.53     4.91     0  02:45        0.53
  WS02003073           JUNCTION     0.26     0.32     4.39     0  02:46        0.32
  WS02003060           JUNCTION     0.33     0.41     5.35     0  02:44        0.41
  WS02003066           JUNCTION     0.16     0.25     5.80     0  02:42        0.25
  WS02003059           JUNCTION     0.65     0.71     5.40     0  02:45        0.71
  WS02003067           JUNCTION     0.43     0.61     5.93     0  02:42        0.61
  WS02004401           JUNCTION     0.49     0.69     6.69     0  02:37        0.69
  WS02004402           JUNCTION     0.52     0.73     6.69     0  02:37        0.73
  WS02004403           JUNCTION     0.55     0.75     6.68     0  02:37        0.75
  WS02004404           JUNCTION     0.63     0.83     6.68     0  02:37        0.83
  WS02004406           JUNCTION     0.64     0.84     6.67     0  02:38        0.84
  WS02004409           JUNCTION     0.31     0.51     6.28     0  02:41        0.51
  WS02004410           JUNCTION     0.33     0.53     6.25     0  02:41        0.53
  WS02004411           JUNCTION     0.35     0.55     6.23     0  02:41        0.55
  WS02004412           JUNCTION     0.38     0.57     6.21     0  02:41        0.57
  WS02004413           JUNCTION     0.53     0.74     6.21     0  02:42        0.74
  WS02004405           JUNCTION     0.63     0.82     6.67     0  02:37        0.82
  WS02006109           JUNCTION     0.55     0.77     7.39     0  02:30        0.77
  WS02006110           JUNCTION     0.56     0.77     7.35     0  02:31        0.77
  WS02006111           JUNCTION     0.14     0.23     6.94     0  02:31        0.23
  WS02006112           JUNCTION     0.64     0.87     6.75     0  02:36        0.86
  WS02006113           JUNCTION     0.21     0.35     7.25     0  02:31        0.35
  WS02006115           JUNCTION     0.37     0.58     6.72     0  02:37        0.58
  WS02006116           JUNCTION     0.46     0.67     6.71     0  02:36        0.67
  WS02006230           JUNCTION     0.45     0.70     7.44     0  02:32        0.70
  WS02006231           JUNCTION     0.26     0.39     7.51     0  02:34        0.38
  WS02006232           JUNCTION     0.36     0.51     7.54     0  02:34        0.51
  WS02006234           JUNCTION     0.27     0.40     7.56     0  02:35        0.40
  WS02006235           JUNCTION     0.30     0.42     7.59     0  02:35        0.42
  WS02006238           JUNCTION     0.32     0.44     7.59     0  02:34        0.44
  WS02006240           JUNCTION     0.18     0.30     7.59     0  02:35        0.30
  WS02006242           JUNCTION     0.20     0.33     7.59     0  02:35        0.33
  WS02006243           JUNCTION     0.09     0.18     7.60     0  02:34        0.18
  WS02006245           JUNCTION     0.07     0.16     7.65     0  02:21        0.16
  WS02006247           JUNCTION     0.08     0.19     7.69     0  02:21        0.19
  WS02006248           JUNCTION     0.05     0.14     7.73     0  02:20        0.14
  WS02006249           JUNCTION     0.08     0.19     7.78     0  02:20        0.19
  WS02006239           JUNCTION     0.25     0.38     7.59     0  02:34        0.38
  WS02006251           JUNCTION     0.06     0.16     7.83     0  02:19        0.16
  WS02006252           JUNCTION     0.00     0.00     8.24     0  00:00        0.00
  WS02006253           JUNCTION     0.10     0.22     7.86     0  02:18        0.22
  WS02006256           JUNCTION     0.90     1.16     8.10     0  02:22        1.13
  WS02004138           JUNCTION     0.16     0.17     7.42     0  06:13        0.17
  WS02004407           JUNCTION     0.14     0.23     6.55     0  02:38        0.23
  WS02006228           JUNCTION     0.52     0.76     7.41     0  02:30        0.76
  WS02006229           JUNCTION     0.49     0.73     7.43     0  02:30        0.73
  WS02006280           JUNCTION     0.06     0.14     8.41     0  02:19        0.14
  WS02006284           JUNCTION     0.36     0.48     8.88     0  02:18        0.48
  WS02006287           JUNCTION     0.09     0.21     9.16     0  02:18        0.21
  WSF200               JUNCTION     0.13     0.22     5.46     0  02:41        0.22
  HS02004901           JUNCTION     0.12     0.23    10.05     0  02:16        0.23
  HS02004881           JUNCTION     0.01     0.02     9.05     0  02:18        0.02
  HS02004876           JUNCTION     0.04     0.10     9.13     0  02:17        0.10
  HS02004870           JUNCTION     0.01     0.04     9.33     0  02:18        0.04
  HS02004862           JUNCTION     0.02     0.05     9.43     0  02:19        0.05
  HS02004856           JUNCTION     0.07     0.10     9.53     0  02:19        0.10
  HS02004852           JUNCTION     0.01     0.03     9.54     0  02:20        0.03
  HS02004848           JUNCTION     0.01     0.03     9.63     0  02:18        0.03
  HS02004842           JUNCTION     0.33     0.36     9.63     0  02:18        0.36
  HS02004837           JUNCTION     0.03     0.05     9.63     0  02:18        0.05
  HS02004830           JUNCTION     0.04     0.06     9.53     0  02:18        0.06
  HS02004824           JUNCTION     0.02     0.04     9.44     0  02:21        0.04
  HS02004817           JUNCTION     0.43     0.52     9.37     0  02:19        0.52
  HS02004807           JUNCTION     0.12     0.20     9.37     0  02:19        0.20
  HS02004802           JUNCTION     0.15     0.23     9.36     0  02:19        0.23
  HS02004799           JUNCTION     0.11     0.25     9.46     0  02:17        0.25
  HS02004792           JUNCTION     0.03     0.10     9.62     0  02:16        0.10
  HS02004788           JUNCTION     0.02     0.07     9.97     0  02:17        0.07
  HS02004785           JUNCTION     0.04     0.13    10.03     0  02:17        0.13
  HS02004777           JUNCTION     0.14     0.25    10.05     0  02:16        0.25
  HS02004770           JUNCTION     0.11     0.22    10.05     0  02:16        0.22
  HS02004480           JUNCTION     0.07     0.19     9.44     0  02:17        0.19
  HS02004479           JUNCTION     0.11     0.23     9.44     0  02:17        0.23
  HS02004478           JUNCTION     0.05     0.12     9.35     0  02:18        0.12
  YS02001745           JUNCTION     0.39     0.84     8.36     0  05:54        0.84
  YS02001748           JUNCTION     0.73     1.28     8.36     0  05:52        1.28
  YS02001751           JUNCTION     0.90     1.48     8.36     0  05:52        1.48
  YS02001754           JUNCTION     1.15     1.75     8.36     0  05:54        1.75
  YS02001762           JUNCTION     1.34     1.96     8.36     0  05:54        1.96
  YS02001765           JUNCTION     1.29     1.91     8.36     0  05:54        1.91
  YS02001767           JUNCTION     1.26     1.87     8.36     0  05:54        1.87
  YS02001770           JUNCTION     1.25     1.87     8.36     0  05:54        1.87
  YS02001774           JUNCTION     1.32     1.94     8.36     0  05:54        1.94
  YS02001779           JUNCTION     1.07     1.68     8.36     0  05:54        1.67
  YS02001882           JUNCTION     0.30     0.45     7.16     0  02:54        0.45
  YS02001884           JUNCTION     0.39     0.54     7.16     0  02:54        0.54
  YS02001759           JUNCTION     1.37     2.00     8.36     0  05:54        2.00
  YS02001887           JUNCTION     0.47     0.62     7.16     0  02:54        0.62
  YS02001890           JUNCTION     0.50     0.65     7.16     0  02:54        0.65
  YS02001898           JUNCTION     0.27     0.41     7.14     0  02:55        0.41
  YS02001901           JUNCTION     0.39     0.54     7.14     0  02:55        0.54
  YS02001904           JUNCTION     0.37     0.51     7.14     0  02:55        0.51
  YS02001907           JUNCTION     0.69     0.85     7.14     0  02:55        0.85
  YS02001910           JUNCTION     0.48     0.64     7.14     0  02:55        0.64
  YS02001915           JUNCTION     0.29     0.42     7.14     0  02:55        0.42
  YS02001918           JUNCTION     0.08     0.09     7.16     0  03:03        0.09
  YS02001619           JUNCTION     0.86     1.43     8.36     0  05:53        1.43
  YS02001629           JUNCTION     1.20     1.81     8.36     0  05:53        1.81
  YS02001641           JUNCTION     1.31     1.92     8.35     0  05:53        1.92
  YS02001644           JUNCTION     1.31     1.92     8.35     0  05:41        1.92
  YS02001652           JUNCTION     1.16     1.76     8.36     0  05:52        1.76
  YS02001655           JUNCTION     0.93     1.51     8.36     0  05:52        1.51
  YS02001920           JUNCTION     0.17     0.20     7.21     0  03:02        0.20
  YS02001923           JUNCTION     0.06     0.08     7.34     0  03:02        0.08
  YS02001926           JUNCTION     0.14     0.17     7.62     0  03:01        0.17
  YS02001929           JUNCTION     0.07     0.08     7.78     0  03:01        0.08
  YS02001658           JUNCTION     0.67     1.22     8.36     0  05:52        1.22
  YS02001661           JUNCTION     0.49     0.96     8.36     0  05:52        0.96
  YS02001664           JUNCTION     0.19     0.43     8.36     0  05:52        0.43
  YS02001622           JUNCTION     0.88     1.45     8.36     0  05:53        1.45
  YS02001633           JUNCTION     1.29     1.90     8.35     0  05:53        1.90
  YS02001649           JUNCTION     1.35     1.97     8.36     0  05:52        1.97
  YS02001757           JUNCTION     1.47     2.10     8.36     0  05:54        2.10
  YS02001895           JUNCTION     0.27     0.41     7.15     0  02:54        0.41
  YS02001625           JUNCTION     1.16     1.75     8.36     0  05:53        1.75
  YS02163301           JUNCTION     1.23     1.84     8.36     0  05:53        1.84
  YS02163601           JUNCTION     1.35     1.96     8.35     0  05:53        1.96
  YS02164001           JUNCTION     1.29     1.90     8.35     0  05:53        1.89
  YS02001647           JUNCTION     1.14     1.75     8.36     0  05:52        1.75
  YSB1154              JUNCTION     0.25     0.38     9.44     0  02:17        0.38
  YSB6556              JUNCTION     0.14     0.27     9.44     0  02:17        0.27
  YSB1174              JUNCTION     0.20     0.33     9.44     0  02:17        0.33
  YSB1171              JUNCTION     0.40     0.53     9.44     0  02:17        0.53
  YS02006553           JUNCTION     0.70     0.86     7.14     0  02:55        0.86
  YS02006561           JUNCTION     0.15     0.22     6.88     0  02:55        0.22
  YS02006556           JUNCTION     0.67     0.83     7.14     0  02:55        0.83
  YS02006558           JUNCTION     0.72     0.87     7.14     0  02:55        0.87
  YS02001783           JUNCTION     0.26     0.39     6.53     0  02:56        0.39
  YS02001784           JUNCTION     0.29     0.42     6.49     0  02:56        0.42
  YS02001786           JUNCTION     0.25     0.36     6.39     0  02:56        0.36
  YS02001788           JUNCTION     0.18     0.27     6.24     0  02:57        0.27
  YS02001790           JUNCTION     0.22     0.32     5.97     0  02:57        0.32
  YS02001791           JUNCTION     0.14     0.21     5.68     0  02:53        0.21
  YS02001793           JUNCTION     0.16     0.65     5.48     0  03:11        0.62
  WS02004139           JUNCTION     0.61     0.64     5.55     0  02:48        0.64
  WSC                  OUTFALL      0.26     0.32     0.99     0  02:46        0.32
  3                    OUTFALL      0.08     0.14     6.14     0  02:22        0.12
  4                    OUTFALL      0.00     0.00     7.00     0  00:00        0.00
  5                    OUTFALL      0.00     0.00     5.00     0  00:00        0.00
  JK-storage           STORAGE      3.94     4.59     5.39     0  03:49        4.56
  CC-storage           STORAGE      0.74     1.37     8.37     0  05:50        1.37
  XR-storage           STORAGE      7.13     7.72     5.72     0  03:19        7.72
  
  
  *******************
  Node Inflow Summary
  *******************
  
  -------------------------------------------------------------------------------------------------
                                  Maximum  Maximum                  Lateral       Total        Flow
                                  Lateral    Total  Time of Max      Inflow      Inflow     Balance
                                   Inflow   Inflow   Occurrence      Volume      Volume       Error
  Node                 Type           LPS      LPS  days hr:min    10^6 ltr    10^6 ltr     Percent
  -------------------------------------------------------------------------------------------------
  WS02001211           JUNCTION      7.35   294.55     0  06:14       0.207        6.96       0.460
  WS02001212           JUNCTION      0.00   293.39     0  03:55           0        6.93       0.227
  WS02001213           JUNCTION      0.00   293.77     0  03:54           0        6.91       0.260
  WS02003069           JUNCTION      0.32   641.16     0  02:44     0.00902        9.89       0.164
  WS02003072           JUNCTION      0.00   641.12     0  02:45           0        9.87       0.225
  WS02003073           JUNCTION      1.82   642.92     0  02:45      0.0514         9.9       0.240
  WS02003060           JUNCTION     16.53   640.83     0  02:44       0.466         9.9       0.158
  WS02003066           JUNCTION      0.00   334.13     0  02:42           0        2.57       0.066
  WS02003059           JUNCTION      0.00   294.66     0  03:54           0         6.9       0.464
  WS02003067           JUNCTION      0.00   334.13     0  02:42           0        2.57       0.182
  WS02004401           JUNCTION      0.00   339.41     0  02:35           0         2.7       0.464
  WS02004402           JUNCTION      0.00   338.71     0  02:37           0        2.68       0.464
  WS02004403           JUNCTION      0.00   338.29     0  02:37           0        2.67       0.442
  WS02004404           JUNCTION      0.16   338.26     0  02:37     0.00457        2.66       0.371
  WS02004406           JUNCTION      0.00   338.13     0  02:37           0        2.64       0.879
  WS02004409           JUNCTION      0.00   337.85     0  02:38           0        2.62       0.171
  WS02004410           JUNCTION      0.00   336.51     0  02:39           0        2.61       0.233
  WS02004411           JUNCTION      0.00   335.40     0  02:39           0         2.6       0.271
  WS02004412           JUNCTION      0.00   334.67     0  02:40           0         2.6       0.344
  WS02004413           JUNCTION      0.00   334.22     0  02:41           0        2.59       0.595
  WS02004405           JUNCTION      0.04   338.21     0  02:37     0.00107        2.65       0.533
  WS02006109           JUNCTION      1.23   342.31     0  02:30      0.0347        2.74       0.531
  WS02006110           JUNCTION      0.00   342.32     0  02:31           0        2.73       0.480
  WS02006111           JUNCTION      0.00   346.80     0  02:31           0        2.71       0.069
  WS02006112           JUNCTION      9.07   346.85     0  02:31      0.0252        2.73       0.633
  WS02006113           JUNCTION      0.00   342.00     0  02:31           0        2.71       0.147
  WS02006115           JUNCTION      0.00   343.81     0  02:33           0        2.72       0.362
  WS02006116           JUNCTION      0.00   341.02     0  02:34           0        2.71       0.366
  WS02006230           JUNCTION     10.28   177.52     0  02:39        0.29        1.86       0.444
  WS02006231           JUNCTION      0.00   166.72     0  02:38           0        1.57       0.009
  WS02006232           JUNCTION      0.00   166.35     0  02:37           0        1.58       0.526
  WS02006234           JUNCTION      0.00   166.12     0  02:36           0        1.57      -0.201
  WS02006235           JUNCTION      0.00   199.63     0  02:23           0        1.79       0.459
  WS02006238           JUNCTION      0.00   135.83     0  02:22           0       0.472       0.245
  WS02006240           JUNCTION      0.00    57.20     0  02:24           0       0.294       1.018
  WS02006242           JUNCTION      0.00    39.58     0  02:22           0       0.211       1.387
  WS02006243           JUNCTION      0.00    39.62     0  02:21           0       0.155       0.026
  WS02006245           JUNCTION      0.00    39.64     0  02:21           0       0.144       0.696
  WS02006247           JUNCTION      0.00    39.67     0  02:20           0       0.144       0.087
  WS02006248           JUNCTION      0.00    39.68     0  02:20           0       0.144       0.022
  WS02006249           JUNCTION      0.00    39.74     0  02:19           0       0.144       0.251
  WS02006239           JUNCTION      0.00    79.35     0  02:23           0       0.385       0.446
  WS02006251           JUNCTION      0.08    39.81     0  02:18     0.00217       0.144       0.053
  WS02006252           JUNCTION      0.00     0.00     0  00:00           0           0       0.000 ltr
  WS02006253           JUNCTION      1.40    39.76     0  02:17     0.00327       0.142       0.103
  WS02006256           JUNCTION      0.00   300.00     0  02:22           0        3.06       0.359
  WS02004138           JUNCTION      0.00   285.00     0  02:06           0        6.78       0.048
  WS02004407           JUNCTION      0.00   337.93     0  02:38           0        2.62       0.090
  WS02006228           JUNCTION      0.00   340.94     0  02:30           0        2.71       0.344
  WS02006229           JUNCTION      0.00   341.07     0  02:30           0        2.73       0.433
  WS02006280           JUNCTION      0.00   204.55     0  02:19           0       0.877       0.008
  WS02006284           JUNCTION      0.10   204.53     0  02:18      0.0027       0.878       0.121
  WS02006287           JUNCTION      0.00   204.42     0  02:18           0       0.876       0.083
  WSF200               JUNCTION      0.00   334.12     0  02:42           0        2.57       0.046
  HS02004901           JUNCTION     11.24    11.24     0  02:10      0.0304      0.0305       6.108
  HS02004881           JUNCTION      4.53    38.70     0  02:17      0.0133       0.139       0.044
  HS02004876           JUNCTION      7.17    34.49     0  02:18      0.0254       0.127       0.418
  HS02004870           JUNCTION      7.98    27.47     0  02:18      0.0251       0.101       0.105
  HS02004862           JUNCTION      6.52    20.04     0  02:18      0.0307      0.0763       0.221
  HS02004856           JUNCTION      5.91    13.57     0  02:18      0.0189      0.0471       3.157
  HS02004852           JUNCTION      0.00     8.04     0  02:18           0      0.0283       0.179
  HS02004848           JUNCTION     12.95    12.95     0  02:21      0.0597      0.0597       0.073
  HS02004842           JUNCTION      0.00     5.36     0  02:31           0      0.0445      41.294
  HS02004837           JUNCTION     19.10    23.65     0  02:17       0.223       0.254       0.310
  HS02004830           JUNCTION      0.15    23.78     0  02:18     0.00423       0.245       0.506
  HS02004824           JUNCTION     14.53    38.13     0  02:21      0.0782       0.322       0.168
  HS02004817           JUNCTION      0.60    38.72     0  02:21      0.0169       0.338       5.186
  HS02004807           JUNCTION     15.02    52.36     0  02:20      0.0461       0.367       1.163
  HS02004802           JUNCTION      0.00    52.64     0  02:21           0       0.363       1.132
  HS02004799           JUNCTION     11.54   129.64     0  02:16      0.0373       0.454       0.501
  HS02004792           JUNCTION     51.71   118.38     0  02:16       0.163       0.417       0.099
  HS02004788           JUNCTION     17.31    68.94     0  02:16      0.0989       0.254       0.151
  HS02004785           JUNCTION      0.15    52.04     0  02:16     0.00423       0.158       0.307
  HS02004777           JUNCTION      0.03    52.36     0  02:14    0.000846       0.158       3.391
  HS02004770           JUNCTION     43.83    53.69     0  02:12        0.13       0.159       1.991
  HS02004480           JUNCTION      0.00   152.83     0  02:17           0       0.529       0.137
  HS02004479           JUNCTION      0.00    23.67     0  02:19           0      0.0877       0.838
  HS02004478           JUNCTION      0.00   204.41     0  02:18           0       0.877       0.071
  YS02001745           JUNCTION     72.80    97.80     0  03:43       0.793       0.799       1.433
  YS02001748           JUNCTION      0.04   203.63     0  03:36     0.00127       0.807       3.044
  YS02001751           JUNCTION      0.01   215.64     0  03:35     0.00031       0.778       3.109
  YS02001754           JUNCTION      0.26   123.06     0  03:19     0.00733       0.744       3.368
  YS02001762           JUNCTION      0.00   116.75     0  02:44           0       0.852       2.592
  YS02001765           JUNCTION      0.00   116.92     0  02:57           0       0.855       2.948
  YS02001767           JUNCTION      0.54   133.16     0  02:58      0.0151       0.876       4.236
  YS02001770           JUNCTION     93.59   137.55     0  02:57       0.929       0.957       3.451
  YS02001774           JUNCTION      0.00    50.33     0  02:57           0      0.0947      36.846
  YS02001779           JUNCTION      0.01    51.21     0  03:10    0.000141      0.0413      59.696
  YS02001882           JUNCTION      0.00     4.09     0  02:08           0     0.00513      47.743
  YS02001884           JUNCTION      0.00    11.64     0  02:08           0      0.0205      30.760
  YS02001759           JUNCTION     91.52   203.74     0  02:53       0.867        1.68       1.407
  YS02001887           JUNCTION    120.65   120.65     0  02:43        1.04        1.05       0.684
  YS02001890           JUNCTION      0.00   119.95     0  02:45           0        1.02       0.768
  YS02001898           JUNCTION      0.00   119.40     0  02:48           0        1.01       0.214
  YS02001901           JUNCTION      0.00   119.28     0  02:49           0        1.01       0.544
  YS02001904           JUNCTION      0.00   118.71     0  02:51           0        1.01       0.507
  YS02001907           JUNCTION      0.00   216.06     0  02:57           0        2.16       1.027
  YS02001910           JUNCTION      0.00    98.86     0  03:01           0        1.16       0.877
  YS02001915           JUNCTION     65.20    98.32     0  03:01       0.679        1.17       0.388
  YS02001918           JUNCTION      0.00    33.38     0  03:02           0       0.488       0.226
  YS02001619           JUNCTION     63.40    63.40     0  03:00        0.67        0.67       1.935
  YS02001629           JUNCTION      0.00   104.31     0  03:53           0       0.592       5.311
  YS02001641           JUNCTION      0.00   146.63     0  02:59           0        1.27       1.731
  YS02001644           JUNCTION     69.15   250.51     0  05:56       0.761        2.55       1.062
  YS02001652           JUNCTION      0.00   115.20     0  03:07           0       0.687       3.584
  YS02001655           JUNCTION      0.15   213.55     0  03:41     0.00434       0.722       3.537
  YS02001920           JUNCTION      2.87    33.40     0  03:02      0.0809        0.49       0.413
  YS02001923           JUNCTION      0.04    30.53     0  03:01     0.00106        0.41       0.072
  YS02001926           JUNCTION      0.05    30.56     0  03:01     0.00147       0.411       0.517
  YS02001929           JUNCTION     30.52    30.52     0  03:01        0.41        0.41       0.070
  YS02001658           JUNCTION      0.00   192.26     0  03:43           0       0.747       3.274
  YS02001661           JUNCTION      0.00    97.87     0  03:41           0       0.767       2.930
  YS02001664           JUNCTION     85.46    85.46     0  02:46       0.758       0.767       0.686
  YS02001622           JUNCTION      0.00    92.61     0  03:11           0        0.66       5.126
  YS02001633           JUNCTION     70.30   151.38     0  03:08       0.783        1.32       2.462
  YS02001649           JUNCTION      0.00   315.35     0  02:59           0        2.62       1.457
  YS02001757           JUNCTION      0.00   522.54     0  02:57           0        4.47       2.122
  YS02001895           JUNCTION      0.00   119.49     0  02:48           0        1.02       0.365
  YS02001625           JUNCTION      0.00   105.21     0  03:53           0       0.631       6.611
  YS02163301           JUNCTION      0.00    99.04     0  03:06           0       0.568       4.478
  YS02163601           JUNCTION      0.11   145.65     0  02:55      0.0031        1.29       2.420
  YS02164001           JUNCTION      0.00   147.03     0  02:56           0        1.27       1.699
  YS02001647           JUNCTION      0.00   214.24     0  02:59           0        2.08       1.386
  YSB1154              JUNCTION     12.76    12.76     0  02:15      0.0452      0.0466       3.195
  YSB6556              JUNCTION      0.00    12.70     0  02:18           0      0.0477       2.682
  YSB1174              JUNCTION     12.81    12.81     0  02:10       0.033       0.034       3.924
  YSB1171              JUNCTION      0.00    23.66     0  02:17           0      0.0872       7.815
  YS02006553           JUNCTION      0.00   216.15     0  03:02           0        2.15       0.667
  YS02006561           JUNCTION      0.00   317.11     0  02:55           0        3.04       0.021
  YS02006556           JUNCTION      0.00   216.47     0  03:02           0        2.15       0.481
  YS02006558           JUNCTION    102.08   317.12     0  02:55       0.944        3.07       0.147
  YS02001783           JUNCTION      0.00   317.10     0  02:56           0        3.04       0.050
  YS02001784           JUNCTION      1.06   318.17     0  02:56      0.0299        3.07       0.082
  YS02001786           JUNCTION      0.06   318.21     0  02:56     0.00159        3.07       0.079
  YS02001788           JUNCTION      0.07   318.27     0  02:56       0.002        3.07       0.046
  YS02001790           JUNCTION      0.15   318.42     0  02:57     0.00437        3.07       0.057
  YS02001791           JUNCTION      0.00   318.41     0  02:57           0        3.07       0.022
  YS02001793           JUNCTION      0.00   641.48     0  03:11           0        3.17       0.164
  WS02004139           JUNCTION      0.32   286.04     0  06:13     0.00905        6.78       0.447
  WSC                  OUTFALL       0.00   642.89     0  02:46           0        9.88       0.000
  3                    OUTFALL       0.00   262.28     0  02:22           0        1.58       0.000
  4                    OUTFALL       0.00     0.00     0  00:00           0           0       0.000 ltr
  5                    OUTFALL       0.00     0.00     0  00:00           0           0       0.000 ltr
  JK-storage           STORAGE       0.00   979.34     0  03:11           0        3.31       0.021
  CC-storage           STORAGE       0.00   518.60     0  02:58           0        3.92       1.685
  XR-storage           STORAGE     318.00   318.00     0  02:55        6.97        7.57       0.000
  
  
  **********************
  Node Surcharge Summary
  **********************
  
  Surcharging occurs when water rises above the top of the highest conduit.
  ---------------------------------------------------------------------
                                               Max. Height   Min. Depth
                                   Hours       Above Crown    Below Rim
  Node                 Type      Surcharged         Meters       Meters
  ---------------------------------------------------------------------
  YS02001748           JUNCTION        2.94          0.204        0.986
  YS02001751           JUNCTION        3.78          0.481        0.719
  YS02001754           JUNCTION        4.30          0.702        0.448
  YS02001762           JUNCTION        5.06          0.962        0.188
  YS02001765           JUNCTION        4.92          0.912        0.188
  YS02001767           JUNCTION        4.80          0.874        0.156
  YS02001770           JUNCTION        4.67          0.839        0.081
  YS02001774           JUNCTION        5.02          0.942        0.108
  YS02001779           JUNCTION        4.23          0.679        0.001
  YS02001759           JUNCTION        5.14          0.997        0.213
  YS02001619           JUNCTION        3.66          0.427        0.183
  YS02001629           JUNCTION        3.67          0.426        0.044
  YS02001641           JUNCTION        4.99          0.916        0.184
  YS02001644           JUNCTION        5.00          0.920        0.000
  YS02001652           JUNCTION        4.39          0.733        0.397
  YS02001655           JUNCTION        3.84          0.509        0.691
  YS02001658           JUNCTION        2.99          0.217        1.083
  YS02001622           JUNCTION        3.73          0.452        0.168
  YS02001633           JUNCTION        4.88          0.881        0.179
  YS02001649           JUNCTION        5.09          0.968        0.082
  YS02001757           JUNCTION        5.30          1.099        0.111
  YS02001625           JUNCTION        4.46          0.752        0.028
  YS02163301           JUNCTION        4.72          0.838        0.192
  YS02163601           JUNCTION        5.08          0.956        0.124
  YS02164001           JUNCTION        4.92          0.895        0.205
  YS02001647           JUNCTION        4.44          0.745        0.155
  
  
  *********************
  Node Flooding Summary
  *********************
  
  Flooding refers to all water that overflows a node, whether it ponds or not.
  --------------------------------------------------------------------------
                                                             Total   Maximum
                                 Maximum   Time of Max       Flood    Ponded
                        Hours       Rate    Occurrence      Volume     Depth
  Node                 Flooded       LPS   days hr:min    10^6 ltr    Meters
  --------------------------------------------------------------------------
  YS02001644              2.15    250.51      0  05:56       0.969     0.000
  XR-storage              0.41     15.74      0  03:19       0.011     0.000
  
  
  **********************
  Storage Volume Summary
  **********************
  
  --------------------------------------------------------------------------------------------------
                         Average     Avg  Evap Exfil       Maximum     Max    Time of Max    Maximum
                          Volume    Pcnt  Pcnt  Pcnt        Volume    Pcnt     Occurrence    Outflow
  Storage Unit           1000 m3    Full  Loss  Loss       1000 m3    Full    days hr:min        LPS
  --------------------------------------------------------------------------------------------------
  JK-storage               0.198      68     0     0         0.231      79       0  03:49     628.85
  CC-storage               2.070      13     0     0         3.808      24       0  05:50      88.44
  XR-storage               0.855      92     0     0         0.926     100       0  03:19     285.00
  
  
  ***********************
  Outfall Loading Summary
  ***********************
  
  -----------------------------------------------------------
                         Flow       Avg       Max       Total
                         Freq      Flow      Flow      Volume
  Outfall Node           Pcnt       LPS       LPS    10^6 ltr
  -----------------------------------------------------------
  WSC                   99.99    432.37    642.89       9.879
  3                     75.56    157.35    262.28       1.581
  4                      0.00      0.00      0.00       0.000
  5                      0.00      0.00      0.00       0.000
  -----------------------------------------------------------
  System                43.89    589.72    808.54      11.460
  
  
  ********************
  Link Flow Summary
  ********************
  
  -----------------------------------------------------------------------------
                                 Maximum  Time of Max   Maximum    Max/    Max/
                                  |Flow|   Occurrence   |Veloc|    Full    Full
  Link                 Type          LPS  days hr:min     m/sec    Flow   Depth
  -----------------------------------------------------------------------------
  WS02003066WSF200     CONDUIT    334.12     0  02:42      2.53    0.06    0.17
  WS02006287WS02006284 CONDUIT    204.44     0  02:18      1.62    0.09    0.22
  WS02006284WS02006280 CONDUIT    204.55     0  02:19      1.86    0.09    0.20
  WS02006280WS02006229 CONDUIT    204.55     0  02:19      2.99    0.04    0.14
  WS02006229WS02006228 CONDUIT    340.94     0  02:30      0.71    1.13    0.92
  WS02006256WS02006235 CONDUIT    166.35     0  05:32      2.55    1.76    1.00
  WS02006253WS02006251 CONDUIT     39.73     0  02:18      0.49    0.12    0.27
  WS02006252WS02006251 CONDUIT      0.00     0  00:00      0.00    0.00    0.00
  WS02006251WS02006249 CONDUIT     39.74     0  02:19      0.53    0.11    0.25
  WS02006249WS02006248 CONDUIT     39.68     0  02:20      0.64    0.22    0.22
  WS02006248WS02006247 CONDUIT     39.67     0  02:20      0.62    0.09    0.22
  WS02006247WS02006245 CONDUIT     39.64     0  02:21      0.56    0.31    0.24
  WS02006245WS02006243 CONDUIT     39.62     0  02:21      0.70    0.12    0.23
  WS02006243WS02006242 CONDUIT     39.58     0  02:22      0.56    0.08    0.34
  WS02006242WS02006240 CONDUIT     44.04     0  02:26      0.50    0.17    0.44
  WS02006240WS02006239 CONDUIT     52.12     0  03:44      0.67    0.16    0.46
  WS02006239WS02006238 CONDUIT     81.31     0  03:43      0.66    0.26    0.57
  WS02006238WS02006235 CONDUIT    117.48     0  04:51      1.05    0.26    0.62
  WS02006235WS02006234 CONDUIT    166.12     0  02:36      0.95    1.75    0.57
  WS02006234WS02006232 CONDUIT    166.35     0  02:37      0.80    0.34    0.65
  WS02006232WS02006231 CONDUIT    166.72     0  02:38      0.67    0.35    0.63
  WS02006231WS02006230 CONDUIT    167.24     0  02:39      1.01    2.54    0.50
  WS02006230WS02006229 CONDUIT    178.58     0  02:38      0.52    3.97    0.98
  WS02006228WS02006109 CONDUIT    341.08     0  02:30      0.69    1.49    0.94
  WS02006116WS02004401 CONDUIT    339.41     0  02:35      0.60    0.47    0.68
  WS02006115WS02006116 CONDUIT    341.02     0  02:34      0.73    0.44    0.59
  WS02006113WS02006111 CONDUIT    346.80     0  02:31      2.10    0.42    0.36
  WS02006112WS02006115 CONDUIT    343.81     0  02:33      0.59    0.20    0.72
  WS02006111WS02006112 CONDUIT    341.56     0  02:31      1.01    0.16    0.64
  WS02006110WS02006113 CONDUIT    342.00     0  02:31      0.91    0.31    0.70
  WS02006109WS02006110 CONDUIT    342.32     0  02:31      0.72    0.66    0.89
  WS02004411WS02004412 CONDUIT    334.67     0  02:40      0.89    0.48    0.56
  WS02004401WS02004402 CONDUIT    338.71     0  02:37      0.57    0.41    0.71
  WS02004413WS02003067 CONDUIT    334.13     0  02:42      0.86    0.14    0.50
  WS02004412WS02004413 CONDUIT    334.22     0  02:41      0.81    0.22    0.65
  WS02004410WS02004411 CONDUIT    335.40     0  02:39      0.78    0.46    0.54
  WS02004409WS02004410 CONDUIT    336.51     0  02:39      0.82    0.44    0.52
  WS02004407WS02004409 CONDUIT    337.85     0  02:38      1.29    0.12    0.37
  WS02004406WS02004407 CONDUIT    337.93     0  02:38      0.79    0.15    0.53
  WS02004405WS02004406 CONDUIT    338.13     0  02:37      0.49    0.67    0.83
  WS02004404WS02004405 CONDUIT    338.18     0  02:37      0.49    3.31    0.83
  WS02004403WS02004404 CONDUIT    338.10     0  02:37      0.51    0.24    0.79
  WS02004402WS02004403 CONDUIT    338.29     0  02:37      0.54    0.49    0.74
  WS02004139WS02001211 CONDUIT    287.20     0  06:14      0.54    0.36    0.52
  WS02004138WS02004139 CONDUIT    285.72     0  06:13      2.39    0.06    0.38
  WS02003067WS02003066 CONDUIT    334.13     0  02:42      0.92    0.11    0.36
  WS02001213WS02003059 CONDUIT    294.66     0  03:54      0.59    0.49    0.67
  WS02001212WS02001213 CONDUIT    293.77     0  03:54      1.19    0.45    0.38
  WS02001211WS02001212 CONDUIT    293.39     0  03:55      0.67    0.22    0.56
  WS02003072WS02003073 CONDUIT    641.10     0  02:45      1.51    1.38    0.40
  WS02003069WS02003072 CONDUIT    641.12     0  02:45      1.43    0.31    0.42
  WS02003060WS02003069 CONDUIT    640.84     0  02:44      1.70    0.25    0.37
  WS02003059WS02003060 CONDUIT    296.34     0  03:55      0.82    0.19    0.56
  HS02004901HS02004770 CONDUIT     10.25     0  02:15      0.05    0.04    0.32
  HS02004876HS02004881 CONDUIT     34.56     0  02:18      0.56    0.37    0.09
  HS02004870HS02004876 CONDUIT     27.45     0  02:18      0.39    0.02    0.10
  HS02004842HS02004848 CONDUIT      5.36     0  02:31      0.03    0.00    0.27
  HS02004837HS02004842 CONDUIT      5.55     0  02:31      0.42    0.00    0.29
  HS02004830HS02004837 CONDUIT     23.63     0  02:18      0.44    0.02    0.08
  HS02004824HS02004830 CONDUIT     23.78     0  02:19      0.48    0.03    0.07
  HS02004817HS02004824 CONDUIT     38.12     0  02:21      0.17    0.02    0.40
  HS02004770HS02004777 CONDUIT     52.33     0  02:14      0.23    0.10    0.33
  HS02004799HS02004480 CONDUIT    129.44     0  02:16      0.59    0.16    0.31
  HS02004792HS02004799 CONDUIT    118.31     0  02:16      0.68    0.07    0.25
  HS02004788HS02004792 CONDUIT     68.88     0  02:17      0.83    0.05    0.12
  HS02004785HS02004788 CONDUIT     51.95     0  02:17      0.51    0.39    0.14
  HS02004777HS02004785 CONDUIT     51.89     0  02:16      0.27    0.06    0.27
  HS02004480HS02004478 CONDUIT    152.78     0  02:17      0.96    0.64    0.23
  HS02004479HS02004480 CONDUIT     23.90     0  02:20      0.15    0.02    0.31
  HS02004862HS02004870 CONDUIT     20.00     0  02:19      0.47    0.02    0.06
  HS02004848HS02004852 CONDUIT      8.04     0  02:18      0.31    0.01    0.04
  HS02004856HS02004862 CONDUIT     13.54     0  02:19      0.34    0.01    0.06
  HS02004852HS02004856 CONDUIT      8.00     0  02:20      0.12    0.01    0.09
  HS02004802HS02004478 CONDUIT     53.03     0  02:22      0.30    0.05    0.25
  HS02004478WS02006287 CONDUIT    204.42     0  02:18      1.31    0.06    0.17
  HS02004817HS02004807 CONDUIT     39.28     0  02:23      0.11    0.02    0.51
  HS02004807HS02004802 CONDUIT     52.64     0  02:21      0.25    0.10    0.30
  YS02001759YS02001757 CONDUIT    205.24     0  02:53      0.26    0.15    1.00
  YS02001762YS02001759 CONDUIT    113.80     0  03:09      0.17    0.13    1.00
  YS02001765YS02001762 CONDUIT    116.75     0  02:44      0.23    0.11    1.00
  YS02001770YS02001767 CONDUIT    132.63     0  02:58      0.34    0.53    1.00
  YS02001774YS02001770 CONDUIT     50.33     0  02:57      0.14    0.03    1.00
  YS02001779YS02001774 CONDUIT     51.20     0  03:10      0.07    0.03    1.00
  YS02001649YS02001757 CONDUIT    314.47     0  02:59      0.40    0.19    1.00
  YS02001767YS02001765 CONDUIT    116.92     0  02:57      0.26    0.15    1.00
  YS02006561YS02001783 CONDUIT    317.10     0  02:56      1.79    0.16    0.38
  YS02001783YS02001784 CONDUIT    317.11     0  02:56      1.24    0.44    0.51
  YS02001784YS02001785 CONDUIT    318.15     0  02:56      1.32    0.74    0.48
  YS02001788YS02001790 CONDUIT    318.26     0  02:57      1.88    0.23    0.37
  YS02001790YS02001791 CONDUIT    318.41     0  02:57      2.22    0.35    0.34
  YS02001791YS02001793 CONDUIT    340.74     0  02:57      4.41    0.15    0.53
  YS02001910YS02001907 CONDUIT     98.95     0  03:01      0.49    0.06    0.74
  YS02001786YS02001788 CONDUIT    318.20     0  02:56      1.75    0.61    0.39
  YS02001915YS02001910 CONDUIT     98.86     0  03:01      0.44    0.05    0.53
  YS02001918YS02001915 CONDUIT     33.36     0  03:03      0.44    0.02    0.26
  YS02001923YS02001920 CONDUIT     30.53     0  03:02      0.45    0.01    0.14
  YS02001926YS02001923 CONDUIT     30.49     0  03:01      0.49    0.04    0.13
  YS02001929YS02001926 CONDUIT     30.51     0  03:01      0.52    0.01    0.13
  YS02001920YS02001918 CONDUIT     33.38     0  03:02      0.46    0.03    0.15
  YS02001629YS02163301 CONDUIT     99.04     0  03:06      0.13    0.12    1.00
  YS02001619YS02001622 CONDUIT     92.61     0  03:11      0.66    0.14    1.00
  YS02001622YS02001625 CONDUIT    105.21     0  03:53      0.25    0.06    1.00
  YS02001625YS02001629 CONDUIT    104.31     0  03:53      0.25    0.05    1.00
  YS02163301YS02001633 CONDUIT     84.95     0  03:08      0.11    0.08    1.00
  YS02163601YS02164001 CONDUIT    147.03     0  02:56      0.19    0.13    1.00
  YS02164001YS02001641 CONDUIT    146.63     0  02:59      0.19    0.20    1.00
  YS02001641YS02001644 CONDUIT    146.03     0  02:59      0.19    0.47    1.00
  YS02001647YS02001649 CONDUIT    251.17     0  03:08      0.33    0.13    1.00
  YS02006553YS02006556 CONDUIT    216.47     0  03:02      0.31    0.19    0.82
  YS02006556YS02006558 CONDUIT    216.69     0  03:02      0.31    0.17    0.85
  YSB6556YSB1171       CONDUIT     12.91     0  02:19      0.06    0.01    0.57
  YS02001907YS02006553 CONDUIT    216.15     0  03:02      0.26    0.25    0.93
  YS02006558YS02006561 CONDUIT    317.11     0  02:55      2.29    0.70    0.49
  YS02001633YS02163601 CONDUIT    145.54     0  02:55      0.19    0.15    1.00
  YS02001644YS02001647 CONDUIT    214.24     0  02:59      0.28    0.13    1.00
  YS02001745YS02001748 CONDUIT    166.84     0  03:36      1.40    0.06    0.92
  YS02001748YS02001751 CONDUIT    215.63     0  03:35      1.09    0.11    1.00
  YS02001751YS02001754 CONDUIT    122.80     0  03:19      0.97    0.06    1.00
  YS02001754YS02001757 CONDUIT    126.52     0  03:12      0.33    0.05    1.00
  YS02001882YS02001884 CONDUIT      4.09     0  02:08      0.06    0.00    0.47
  YS02001884YS02001887 CONDUIT     11.64     0  02:08      0.06    0.02    0.56
  YS02001890YS02001895 CONDUIT    119.49     0  02:48      0.29    0.06    0.53
  YS02001895YS02001898 CONDUIT    119.40     0  02:48      0.49    0.21    0.39
  YS02001898YS02001901 CONDUIT    119.28     0  02:49      0.33    0.08    0.47
  YS02001901YS02001904 CONDUIT    118.71     0  02:51      0.29    0.18    0.52
  YS02001904YS02001907 CONDUIT    118.90     0  02:52      0.21    0.04    0.68
  YS02001887YS02001890 CONDUIT    119.95     0  02:45      0.24    0.21    0.61
  YS02001652YS02001649 CONDUIT    147.18     0  03:06      0.33    0.07    1.00
  YS02001655YS02001652 CONDUIT    115.20     0  03:07      1.05    0.06    1.00
  YS02001658YS02001655 CONDUIT    213.39     0  03:41      1.26    0.09    1.00
  YS02001661YS02001658 CONDUIT    135.05     0  03:43      1.45    0.05    0.94
  YS02001664YS02001661 CONDUIT     95.18     0  04:58      1.11    0.03    0.70
  YSB1154YSB6556       CONDUIT     12.70     0  02:18      0.19    0.02    0.46
  YSB1174YSB1171       CONDUIT     11.85     0  02:11      0.06    0.02    0.58
  YSB1171HS02004479    CONDUIT     23.67     0  02:19      0.54    0.02    0.45
  HS02004881HS02006253 CONDUIT     38.69     0  02:18      1.66    0.01    0.03
  YS02001793JiankangQianchi CONDUIT    979.34     0  03:11      1.82    0.08    0.82
  YS02001757CaochengTiaoxuchi CONDUIT    518.60     0  02:58      0.99    0.23    1.00
  WSF200WS02003060     CONDUIT    334.21     0  02:42      1.38    0.07    0.27
  1                    CONDUIT    642.89     0  02:46      2.95    0.22    0.32
  2                    CONDUIT      0.00     0  00:00      0.00    0.00    0.00
  3                    CONDUIT    262.28     0  02:22      8.30    0.42    0.48
  4                    CONDUIT      0.00     0  00:00      0.00    0.00    0.00
  CC-Pump-1            PUMP         0.00     0  00:00              0.00
  CC-Pump-2            PUMP         0.00     0  00:00              0.00
  JK-Pump-1            PUMP       300.00     0  02:22              1.00
  JK-Pump-2            PUMP         0.00     0  00:00              0.00
  XR-Pump-1            PUMP        95.00     0  00:00              1.00
  XR-Pump-2            PUMP        95.00     0  00:25              1.00
  XR-Pump-3            PUMP        95.00     0  02:06              1.00
  XR-Pump-4            PUMP         0.00     0  00:00              0.00
  
  
  ***************************
  Flow Classification Summary
  ***************************
  
  -------------------------------------------------------------------------------------
                      Adjusted    ---------- Fraction of Time in Flow Class ---------- 
                       /Actual         Up    Down  Sub   Sup   Up    Down  Norm  Inlet 
  Conduit               Length    Dry  Dry   Dry   Crit  Crit  Crit  Crit  Ltd   Ctrl  
  -------------------------------------------------------------------------------------
  WS02003066WSF200        1.00   0.11  0.00  0.00  0.00  0.89  0.00  0.00  0.69  0.00
  WS02006287WS02006284    1.00   0.03  0.03  0.00  0.56  0.38  0.00  0.00  0.77  0.00
  WS02006284WS02006280    1.00   0.04  0.00  0.00  0.00  0.00  0.00  0.96  0.00  0.00
  WS02006280WS02006229    1.00   0.04  0.00  0.00  0.00  0.00  0.00  0.96  0.00  0.00
  WS02006229WS02006228    1.00   0.00  0.00  0.00  1.00  0.00  0.00  0.00  0.00  0.00
  WS02006256WS02006235    1.00   0.07  0.00  0.00  0.89  0.04  0.00  0.00  0.04  0.00
  WS02006253WS02006251    1.00   0.02  0.02  0.00  0.96  0.00  0.00  0.00  0.00  0.00
  WS02006252WS02006251    1.00   1.00  0.00  0.00  0.00  0.00  0.00  0.00  0.00  0.00
  WS02006251WS02006249    1.00   0.00  0.00  0.00  1.00  0.00  0.00  0.00  0.95  0.00
  WS02006249WS02006248    1.00   0.00  0.01  0.00  0.00  0.00  0.99  0.00  0.00  0.00
  WS02006248WS02006247    1.00   0.01  0.00  0.00  0.98  0.00  0.00  0.02  0.87  0.00
  WS02006247WS02006245    1.00   0.01  0.00  0.00  0.96  0.00  0.00  0.03  0.00  0.00
  WS02006245WS02006243    1.00   0.01  0.00  0.00  0.88  0.00  0.00  0.11  0.09  0.00
  WS02006243WS02006242    1.00   0.01  0.00  0.00  0.95  0.00  0.00  0.04  0.45  0.00
  WS02006242WS02006240    1.00   0.02  0.04  0.00  0.94  0.00  0.01  0.00  0.01  0.00
  WS02006240WS02006239    1.00   0.06  0.00  0.00  0.87  0.00  0.00  0.07  0.08  0.00
  WS02006239WS02006238    1.00   0.06  0.00  0.00  0.93  0.00  0.00  0.01  0.01  0.00
  WS02006238WS02006235    1.00   0.06  0.01  0.00  0.93  0.00  0.00  0.00  0.00  0.00
  WS02006235WS02006234    1.00   0.08  0.01  0.00  0.86  0.00  0.06  0.00  0.00  0.00
  WS02006234WS02006232    1.00   0.08  0.00  0.00  0.92  0.00  0.00  0.00  0.01  0.00
  WS02006232WS02006231    1.00   0.09  0.01  0.00  0.90  0.00  0.01  0.00  0.01  0.00
  WS02006231WS02006230    1.00   0.09  0.00  0.00  0.17  0.00  0.73  0.00  0.00  0.00
  WS02006230WS02006229    1.00   0.00  0.00  0.00  0.99  0.00  0.00  0.01  0.02  0.00
  WS02006228WS02006109    1.00   0.00  0.00  0.00  1.00  0.00  0.00  0.00  0.00  0.00
  WS02006116WS02004401    1.00   0.03  0.00  0.00  0.97  0.00  0.00  0.00  0.01  0.00
  WS02006115WS02006116    1.00   0.03  0.00  0.00  0.93  0.00  0.00  0.03  0.00  0.00
  WS02006113WS02006111    1.00   0.02  0.00  0.00  0.01  0.97  0.00  0.00  0.11  0.00
  WS02006112WS02006115    1.00   0.02  0.01  0.00  0.96  0.00  0.00  0.00  0.00  0.00
  WS02006111WS02006112    1.00   0.02  0.00  0.00  0.97  0.00  0.00  0.00  0.92  0.00
  WS02006110WS02006113    1.00   0.00  0.02  0.00  0.98  0.00  0.00  0.00  0.00  0.00
  WS02006109WS02006110    1.00   0.00  0.00  0.00  0.99  0.00  0.00  0.00  0.00  0.00
  WS02004411WS02004412    1.00   0.09  0.00  0.00  0.91  0.00  0.00  0.00  0.00  0.00
  WS02004401WS02004402    1.00   0.04  0.00  0.00  0.96  0.00  0.00  0.00  0.04  0.00
  WS02004413WS02003067    1.00   0.10  0.01  0.00  0.00  0.00  0.89  0.00  0.00  0.00
  WS02004412WS02004413    1.00   0.09  0.00  0.00  0.90  0.00  0.00  0.00  0.00  0.00
  WS02004410WS02004411    1.00   0.09  0.00  0.00  0.91  0.00  0.00  0.00  0.00  0.00
  WS02004409WS02004410    1.00   0.09  0.00  0.00  0.91  0.00  0.00  0.00  0.00  0.00
  WS02004407WS02004409    1.00   0.09  0.00  0.00  0.90  0.01  0.00  0.00  0.72  0.00
  WS02004406WS02004407    1.00   0.00  0.09  0.00  0.91  0.00  0.00  0.00  0.00  0.00
  WS02004405WS02004406    1.00   0.00  0.00  0.00  1.00  0.00  0.00  0.00  0.04  0.00
  WS02004404WS02004405    1.00   0.00  0.00  0.00  1.00  0.00  0.00  0.00  0.01  0.00
  WS02004403WS02004404    1.00   0.00  0.04  0.00  0.96  0.00  0.00  0.00  0.04  0.00
  WS02004402WS02004403    1.00   0.04  0.00  0.00  0.96  0.00  0.00  0.00  0.00  0.00
  WS02004139WS02001211    1.00   0.00  0.00  0.00  1.00  0.00  0.00  0.00  0.00  0.00
  WS02004138WS02004139    1.00   0.00  0.00  0.00  1.00  0.00  0.00  0.00  1.00  0.00
  WS02003067WS02003066    1.00   0.11  0.00  0.00  0.89  0.00  0.00  0.00  0.00  0.00
  WS02001213WS02003059    1.00   0.00  0.00  0.00  1.00  0.00  0.00  0.00  0.00  0.00
  WS02001212WS02001213    1.00   0.00  0.00  0.00  0.36  0.00  0.64  0.00  0.00  0.00
  WS02001211WS02001212    1.00   0.00  0.00  0.00  1.00  0.00  0.00  0.00  0.00  0.00
  WS02003072WS02003073    1.00   0.00  0.00  0.00  0.00  0.00  0.00  1.00  0.00  0.00
  WS02003069WS02003072    1.00   0.00  0.00  0.00  1.00  0.00  0.00  0.00  0.54  0.00
  WS02003060WS02003069    1.00   0.00  0.00  0.00  0.99  0.01  0.00  0.00  0.32  0.00
  WS02003059WS02003060    1.00   0.00  0.00  0.00  1.00  0.00  0.00  0.00  0.02  0.00
  HS02004901HS02004770    1.00   0.04  0.00  0.00  0.96  0.00  0.00  0.00  0.03  0.00
  HS02004876HS02004881    1.00   0.01  0.00  0.00  0.99  0.00  0.00  0.00  0.00  0.00
  HS02004870HS02004876    1.00   0.00  0.00  0.00  1.00  0.00  0.00  0.00  0.95  0.00
  HS02004842HS02004848    1.00   0.00  0.04  0.00  0.96  0.00  0.00  0.00  0.69  0.00
  HS02004837HS02004842    1.00   0.00  0.00  0.00  1.00  0.00  0.00  0.00  0.11  0.00
  HS02004830HS02004837    1.00   0.00  0.00  0.00  1.00  0.00  0.00  0.00  0.99  0.00
  HS02004824HS02004830    1.00   0.00  0.00  0.00  1.00  0.00  0.00  0.00  0.00  0.00
  HS02004817HS02004824    1.00   0.00  0.00  0.00  1.00  0.00  0.00  0.00  1.00  0.00
  HS02004770HS02004777    1.00   0.00  0.04  0.00  0.96  0.00  0.00  0.00  0.07  0.00
  HS02004799HS02004480    1.00   0.00  0.01  0.00  0.94  0.00  0.05  0.00  0.00  0.00
  HS02004792HS02004799    1.00   0.00  0.00  0.00  1.00  0.00  0.00  0.00  0.98  0.00
  HS02004788HS02004792    1.00   0.00  0.00  0.00  1.00  0.00  0.00  0.00  0.98  0.00
  HS02004785HS02004788    1.00   0.00  0.00  0.00  1.00  0.00  0.00  0.00  0.00  0.00
  HS02004777HS02004785    1.00   0.00  0.00  0.00  1.00  0.00  0.00  0.00  0.21  0.00
  HS02004480HS02004478    1.00   0.05  0.00  0.00  0.63  0.00  0.00  0.33  0.00  0.00
  HS02004479HS02004480    1.00   0.01  0.00  0.00  0.99  0.00  0.00  0.00  0.16  0.00
  HS02004862HS02004870    1.00   0.00  0.00  0.00  1.00  0.00  0.00  0.00  0.05  0.00
  HS02004848HS02004852    1.00   0.04  0.00  0.00  0.96  0.00  0.00  0.00  0.71  0.00
  HS02004856HS02004862    1.00   0.00  0.08  0.00  0.92  0.00  0.00  0.00  0.74  0.00
  HS02004852HS02004856    1.00   0.04  0.01  0.00  0.95  0.00  0.00  0.00  0.82  0.00
  HS02004802HS02004478    1.00   0.04  0.01  0.00  0.95  0.00  0.00  0.00  0.00  0.00
  HS02004478WS02006287    1.00   0.06  0.00  0.00  0.85  0.09  0.00  0.00  0.77  0.00
  HS02004817HS02004807    1.00   0.00  0.04  0.00  0.96  0.00  0.00  0.00  0.00  0.00
  HS02004807HS02004802    1.00   0.04  0.00  0.00  0.95  0.00  0.00  0.00  0.01  0.00
  YS02001759YS02001757    1.00   0.00  0.00  0.00  1.00  0.00  0.00  0.00  0.17  0.00
  YS02001762YS02001759    1.00   0.00  0.00  0.00  1.00  0.00  0.00  0.00  0.05  0.00
  YS02001765YS02001762    1.00   0.00  0.00  0.00  1.00  0.00  0.00  0.00  0.22  0.00
  YS02001770YS02001767    1.00   0.00  0.00  0.00  1.00  0.00  0.00  0.00  0.00  0.00
  YS02001774YS02001770    1.00   0.00  0.06  0.00  0.94  0.00  0.00  0.00  0.06  0.00
  YS02001779YS02001774    1.00   0.00  0.00  0.00  1.00  0.00  0.00  0.00  0.26  0.00
  YS02001649YS02001757    1.00   0.00  0.00  0.00  1.00  0.00  0.00  0.00  0.19  0.00
  YS02001767YS02001765    1.00   0.00  0.00  0.00  1.00  0.00  0.00  0.00  0.01  0.00
  YS02006561YS02001783    1.00   0.09  0.00  0.00  0.00  0.91  0.00  0.00  0.73  0.00
  YS02001783YS02001784    1.00   0.00  0.09  0.00  0.91  0.00  0.00  0.00  0.00  0.00
  YS02001784YS02001785    1.00   0.00  0.00  0.00  1.00  0.00  0.00  0.00  0.25  0.00
  YS02001788YS02001790    1.00   0.00  0.00  0.00  0.09  0.91  0.00  0.00  0.77  0.00
  YS02001790YS02001791    1.00   0.00  0.00  0.00  0.00  1.00  0.00  0.00  0.55  0.00
  YS02001791YS02001793    1.00   0.00  0.00  0.00  0.15  0.85  0.00  0.00  0.25  0.00
  YS02001910YS02001907    1.00   0.00  0.00  0.00  0.99  0.00  0.00  0.01  0.13  0.00
  YS02001786YS02001788    1.00   0.00  0.00  0.00  0.09  0.91  0.00  0.00  0.00  0.00
  YS02001915YS02001910    1.00   0.00  0.00  0.00  1.00  0.00  0.00  0.00  0.24  0.00
  YS02001918YS02001915    1.00   0.00  0.00  0.00  0.99  0.00  0.00  0.00  0.81  0.00
  YS02001923YS02001920    1.00   0.00  0.00  0.00  1.00  0.00  0.00  0.00  1.00  0.00
  YS02001926YS02001923    1.00   0.00  0.02  0.00  0.00  0.00  0.98  0.00  0.00  0.00
  YS02001929YS02001926    1.00   0.00  0.04  0.00  0.96  0.00  0.00  0.00  0.87  0.00
  YS02001920YS02001918    1.00   0.00  0.00  0.00  1.00  0.00  0.00  0.00  0.00  0.00
  YS02001629YS02163301    1.00   0.07  0.01  0.00  0.92  0.00  0.00  0.00  0.00  0.00
  YS02001619YS02001622    1.00   0.04  0.00  0.00  0.96  0.00  0.00  0.00  0.00  0.00
  YS02001622YS02001625    1.00   0.04  0.00  0.00  0.96  0.00  0.00  0.00  0.13  0.00
  YS02001625YS02001629    1.00   0.04  0.04  0.00  0.89  0.00  0.02  0.00  0.00  0.00
  YS02163301YS02001633    1.00   0.00  0.07  0.00  0.93  0.00  0.00  0.00  0.00  0.00
  YS02163601YS02164001    1.00   0.00  0.03  0.00  0.97  0.00  0.00  0.00  0.00  0.00
  YS02164001YS02001641    1.00   0.00  0.02  0.00  0.97  0.00  0.00  0.00  0.07  0.00
  YS02001641YS02001644    1.00   0.00  0.00  0.00  1.00  0.00  0.00  0.00  0.00  0.00
  YS02001647YS02001649    1.00   0.00  0.08  0.00  0.92  0.00  0.00  0.00  0.01  0.00
  YS02006553YS02006556    1.00   0.00  0.00  0.00  1.00  0.00  0.00  0.00  0.03  0.00
  YS02006556YS02006558    1.00   0.00  0.00  0.00  1.00  0.00  0.00  0.00  0.00  0.00
  YSB6556YSB1171          1.00   0.01  0.03  0.00  0.96  0.00  0.00  0.00  0.00  0.00
  YS02001907YS02006553    1.00   0.00  0.01  0.00  0.99  0.00  0.00  0.00  0.00  0.00
  YS02006558YS02006561    1.00   0.09  0.00  0.00  0.00  0.91  0.00  0.00  0.72  0.00
  YS02001633YS02163601    1.00   0.00  0.00  0.00  1.00  0.00  0.00  0.00  0.20  0.00
  YS02001644YS02001647    1.00   0.00  0.08  0.00  0.92  0.00  0.00  0.00  0.00  0.00
  YS02001745YS02001748    1.00   0.00  0.00  0.00  0.81  0.03  0.00  0.16  0.11  0.00
  YS02001748YS02001751    1.00   0.00  0.00  0.00  0.96  0.04  0.00  0.00  0.24  0.00
  YS02001751YS02001754    1.00   0.00  0.00  0.00  0.90  0.00  0.00  0.09  0.02  0.00
  YS02001754YS02001757    1.00   0.00  0.00  0.00  1.00  0.00  0.00  0.00  0.26  0.00
  YS02001882YS02001884    1.00   0.07  0.01  0.00  0.93  0.00  0.00  0.00  0.00  0.00
  YS02001884YS02001887    1.00   0.02  0.02  0.00  0.96  0.00  0.00  0.00  0.00  0.00
  YS02001890YS02001895    1.00   0.00  0.07  0.00  0.92  0.00  0.00  0.00  0.00  0.00
  YS02001895YS02001898    1.00   0.08  0.00  0.00  0.91  0.00  0.01  0.00  0.00  0.00
  YS02001898YS02001901    1.00   0.07  0.01  0.00  0.92  0.00  0.00  0.00  0.02  0.00
  YS02001901YS02001904    1.00   0.07  0.00  0.00  0.93  0.00  0.00  0.00  0.00  0.00
  YS02001904YS02001907    1.00   0.00  0.07  0.00  0.93  0.00  0.00  0.00  0.00  0.00
  YS02001887YS02001890    1.00   0.00  0.00  0.00  0.99  0.00  0.01  0.00  0.00  0.00
  YS02001652YS02001649    1.00   0.00  0.00  0.00  1.00  0.00  0.00  0.00  0.26  0.00
  YS02001655YS02001652    1.00   0.00  0.00  0.00  0.91  0.00  0.00  0.09  0.02  0.00
  YS02001658YS02001655    1.00   0.00  0.06  0.00  0.90  0.04  0.00  0.00  0.11  0.00
  YS02001661YS02001658    1.00   0.06  0.00  0.00  0.81  0.13  0.00  0.00  0.15  0.00
  YS02001664YS02001661    1.00   0.04  0.00  0.00  0.68  0.27  0.00  0.00  0.42  0.00
  YSB1154YSB6556          1.00   0.04  0.00  0.00  0.96  0.00  0.00  0.00  0.02  0.00
  YSB1174YSB1171          1.00   0.02  0.01  0.00  0.97  0.00  0.00  0.00  0.00  0.00
  YSB1171HS02004479       1.00   0.01  0.00  0.00  0.98  0.00  0.00  0.00  0.13  0.00
  HS02004881HS02006253    1.00   0.02  0.00  0.00  0.00  0.00  0.00  0.98  0.00  0.00
  YS02001793JiankangQianchi    1.00   0.00  0.00  0.00  1.00  0.00  0.00  0.00  0.69  0.00
  YS02001757CaochengTiaoxuchi    1.00   0.00  0.11  0.00  0.89  0.00  0.00  0.00  0.00  0.00
  WSF200WS02003060        1.00   0.00  0.11  0.00  0.89  0.00  0.00  0.00  0.67  0.00
  1                       1.00   0.00  0.00  0.00  0.00  1.00  0.00  0.00  0.29  0.00
  2                       1.00   1.00  0.00  0.00  0.00  0.00  0.00  0.00  0.00  0.00
  3                       1.00   0.24  0.00  0.00  0.00  0.76  0.00  0.00  0.04  0.00
  4                       1.00   1.00  0.00  0.00  0.00  0.00  0.00  0.00  0.00  0.00
  
  
  *************************
  Conduit Surcharge Summary
  *************************
  
  ----------------------------------------------------------------------------
                                                           Hours        Hours 
                         --------- Hours Full --------   Above Full   Capacity
  Conduit                Both Ends  Upstream  Dnstream   Normal Flow   Limited
  ----------------------------------------------------------------------------
  WS02006229WS02006228        0.01      0.01      0.01      0.34         0.01
  WS02006256WS02006235        2.47      2.49      5.49      2.80         0.01
  WS02006235WS02006234        0.01      0.01      0.01      2.56         0.01
  WS02006231WS02006230        0.01      0.01      0.01      2.83         0.01
  WS02006230WS02006229        0.01      0.01      0.01      3.94         0.01
  WS02006228WS02006109        0.01      0.01      0.01      0.87         0.01
  WS02006111WS02006112        0.01      0.01      0.45      0.01         0.01
  WS02004404WS02004405        0.01      0.01      0.01      2.60         0.01
  WS02003072WS02003073        0.01      0.01      0.01      1.53         0.01
  YS02001759YS02001757        5.14      5.14      5.30      0.01         0.01
  YS02001762YS02001759        5.06      5.06      5.14      0.01         0.01
  YS02001765YS02001762        4.92      4.92      5.06      0.01         0.01
  YS02001770YS02001767        4.78      4.79      4.80      0.01         0.38
  YS02001774YS02001770        4.67      4.67      5.02      0.01         0.01
  YS02001779YS02001774        4.23      4.23      5.02      0.01         0.01
  YS02001649YS02001757        5.09      5.09      5.30      0.01         0.01
  YS02001767YS02001765        4.80      4.80      4.92      0.01         0.01
  YS02001629YS02163301        4.62      4.62      4.72      0.01         0.01
  YS02001619YS02001622        3.66      3.66      3.73      0.01         0.01
  YS02001622YS02001625        3.73      3.73      4.46      0.01         0.01
  YS02001625YS02001629        3.66      3.66      4.46      0.01         0.01
  YS02163301YS02001633        4.72      4.72      4.95      0.01         0.01
  YS02163601YS02164001        4.92      4.92      5.08      0.01         0.01
  YS02164001YS02001641        4.92      4.92      4.99      0.01         0.01
  YS02001641YS02001644        4.98      4.99      5.00      0.01         0.35
  YS02001647YS02001649        4.44      4.44      5.09      0.01         0.01
  YS02001633YS02163601        4.88      4.88      5.08      0.01         0.01
  YS02001644YS02001647        4.44      4.44      5.00      0.01         0.01
  YS02001745YS02001748        0.01      0.01      2.94      0.01         0.01
  YS02001748YS02001751        3.21      3.21      3.78      0.01         0.01
  YS02001751YS02001754        3.78      3.78      4.30      0.01         0.01
  YS02001754YS02001757        4.46      4.46      5.30      0.01         0.01
  YS02001652YS02001649        4.48      4.48      5.09      0.01         0.01
  YS02001655YS02001652        3.84      3.84      4.39      0.01         0.01
  YS02001658YS02001655        2.98      2.98      3.84      0.01         0.01
  YS02001661YS02001658        0.01      0.01      2.98      0.01         0.01
  YS02001793JiankangQianchi        0.01      0.01      7.82      0.01         0.01
  YS02001757CaochengTiaoxuchi        3.42      3.42      5.30      0.01         0.01
  
  
  ***************
  Pumping Summary
  ***************
  
  ---------------------------------------------------------------------------------------------------------
                                                  Min       Avg       Max     Total     Power    % Time Off
                        Percent   Number of      Flow      Flow      Flow    Volume     Usage    Pump Curve
  Pump                 Utilized   Start-Ups       LPS       LPS       LPS  10^6 ltr     Kw-hr    Low   High
  ---------------------------------------------------------------------------------------------------------
  CC-Pump-1                0.00           0      0.00      0.00      0.00     0.000      0.00    0.0    0.0
  CC-Pump-2                0.00           0      0.00      0.00      0.00     0.000      0.00    0.0    0.0
  JK-Pump-1               36.00          12      0.00    300.00    300.00     3.046     26.30    0.0    0.0
  JK-Pump-2                0.00           0      0.00      0.00      0.00     0.000      0.00    0.0    0.0
  XR-Pump-1              100.00           1      0.00     95.00     95.00     2.679     18.41    0.0    0.0
  XR-Pump-2               94.70           1      0.00     95.00     95.00     2.537     16.99    0.0    0.0
  XR-Pump-3               58.35           3      0.00     95.00     95.00     1.563      9.60    0.0    0.0
  XR-Pump-4                0.00           0      0.00      0.00      0.00     0.000      0.00    0.0    0.0
  

  Analysis begun on:  Thu Jan  6 01:45:53 2022
  Analysis ended on:  Thu Jan  6 01:45:55 2022
  Total elapsed time: 00:00:02